<?xml version="1.0"?>
<trips>
    <trip id="0" depart="0.0" from="-223#2" to="1005#0" />
    <trip id="1" depart="0.05" from="151#1" to="235" />
    <trip id="2" depart="0.1" from="1623#0" to="1005#1" />
    <trip id="3" depart="0.15" from="2046#2" to="1892#1" />
    <trip id="4" depart="0.2" from="1042#2" to="111" />
    <trip id="5" depart="0.25" from="228" to="-253#1" />
    <trip id="6" depart="0.3" from="765#1" to="27#2" />
    <trip id="7" depart="0.35" from="1522#5" to="-1085" />
    <trip id="8" depart="0.4" from="1489#1" to="958" />
    <trip id="9" depart="0.45" from="-1538" to="776#1" />
    <trip id="10" depart="0.5" from="21" to="-1008#0" />
    <trip id="11" depart="0.55" from="164#2" to="-1785#1" />
    <trip id="12" depart="0.6" from="865#2" to="1828" />
    <trip id="13" depart="0.65" from="1706#1" to="338#0" />
    <trip id="14" depart="0.7" from="-435#1" to="315" />
    <trip id="15" depart="0.75" from="-7#0" to="1943#2" />
    <trip id="16" depart="0.8" from="716#3" to="-167#21" />
    <trip id="17" depart="0.85" from="1467" to="-1085" />
    <trip id="18" depart="0.9" from="-1096" to="-1134" />
    <trip id="19" depart="0.95" from="-432#2" to="428" />
    <trip id="20" depart="1.0" from="-1379" to="-619#6" />
    <trip id="21" depart="1.05" from="1061#1" to="932#2" />
    <trip id="22" depart="1.1" from="-1452#0" to="1137#3" />
    <trip id="23" depart="1.15" from="-434" to="-684#2" />
    <trip id="24" depart="1.2" from="1913#1" to="-619#7" />
    <trip id="25" depart="1.25" from="-97#1" to="83#1" />
    <trip id="26" depart="1.3" from="1476#1" to="-200#0" />
    <trip id="27" depart="1.35" from="-1527#2" to="765#1" />
    <trip id="28" depart="1.4" from="331#0" to="-765#0" />
    <trip id="29" depart="1.45" from="1061#1" to="298#3" />
    <trip id="30" depart="1.5" from="1930#1" to="1708" />
    <trip id="31" depart="1.55" from="-132#1" to="-332" />
    <trip id="32" depart="1.6" from="1083#0" to="-509#0" />
    <trip id="33" depart="1.65" from="-946#0" to="1552" />
    <trip id="34" depart="1.7" from="1045" to="-9#4" />
    <trip id="35" depart="1.75" from="-938#1" to="223#5" />
    <trip id="36" depart="1.8" from="-1554#1" to="-151#3" />
    <trip id="37" depart="1.85" from="1170#0" to="765#0" />
    <trip id="38" depart="1.9" from="1094#0" to="1059#1" />
    <trip id="39" depart="1.95" from="-1046#0" to="-1080" />
    <trip id="40" depart="2.0" from="-1552" to="167#2" />
    <trip id="41" depart="2.05" from="1012" to="514#5" />
    <trip id="42" depart="2.1" from="2017" to="214#1" />
    <trip id="43" depart="2.15" from="-616#0" to="-957#1" />
    <trip id="44" depart="2.2" from="-970#1" to="-1070#0" />
    <trip id="45" depart="2.25" from="-1506#1" to="-383" />
    <trip id="46" depart="2.3" from="1107#0" to="1921#3" />
    <trip id="47" depart="2.35" from="-83#8" to="1030#1" />
    <trip id="48" depart="2.4" from="-1536" to="889#0" />
    <trip id="49" depart="2.45" from="618#1" to="-162#3" />
    <trip id="50" depart="2.5" from="-514#5" to="972#3" />
    <trip id="51" depart="2.55" from="989#0" to="-167#14" />
    <trip id="52" depart="2.6" from="1996#2" to="-1530#2" />
    <trip id="53" depart="2.65" from="1476#3" to="625" />
    <trip id="54" depart="2.7" from="-99#1" to="1867#0" />
    <trip id="55" depart="2.75" from="264#1" to="946#3" />
    <trip id="56" depart="2.8" from="1046#1" to="-1492#0" />
    <trip id="57" depart="2.85" from="-344#1" to="-27#5" />
    <trip id="58" depart="2.9" from="841#0" to="-841#7" />
    <trip id="59" depart="2.95" from="1994" to="1024#3" />
    <trip id="60" depart="3.0" from="534#2" to="-619#4" />
    <trip id="61" depart="3.05" from="-813#0" to="1971#0" />
    <trip id="62" depart="3.1" from="645#0" to="1063#1" />
    <trip id="63" depart="3.15" from="888#1" to="-616#1" />
    <trip id="64" depart="3.2" from="-1066" to="-947#5" />
    <trip id="65" depart="3.25" from="640#0" to="-640#1" />
    <trip id="66" depart="3.3" from="530" to="1710#2" />
    <trip id="67" depart="3.35" from="27#19" to="1472#0" />
    <trip id="68" depart="3.4" from="-1900#7" to="-2046#3" />
    <trip id="69" depart="3.45" from="172#1" to="2003#2" />
    <trip id="70" depart="3.5" from="-1506#0" to="1489#1" />
    <trip id="71" depart="3.55" from="426#3" to="-27#1" />
    <trip id="72" depart="3.6" from="1096" to="2012#0" />
    <trip id="73" depart="3.65" from="-1378" to="1165#3" />
    <trip id="74" depart="3.7" from="56" to="1478#0" />
    <trip id="75" depart="3.75" from="101#1" to="89" />
    <trip id="76" depart="3.8" from="-765#3" to="993#1" />
    <trip id="77" depart="3.85" from="223#0" to="-641" />
    <trip id="78" depart="3.9" from="-18" to="1545#0" />
    <trip id="79" depart="3.95" from="1945#4" to="1837#2" />
    <trip id="80" depart="4.0" from="1472#0" to="-333#0" />
    <trip id="81" depart="4.05" from="1473#2" to="1107#0" />
    <trip id="82" depart="4.1" from="1500#0" to="236" />
    <trip id="83" depart="4.15" from="-2046#7" to="1819#0" />
    <trip id="84" depart="4.2" from="324#0" to="341#1" />
    <trip id="85" depart="4.25" from="194#0" to="-43#2" />
    <trip id="86" depart="4.3" from="-167#21" to="915#0" />
    <trip id="87" depart="4.35" from="-9#4" to="947#3" />
    <trip id="88" depart="4.4" from="-947#3" to="76#1" />
    <trip id="89" depart="4.45" from="1919#1" to="332" />
    <trip id="90" depart="4.5" from="-1537#1" to="-904#6" />
    <trip id="91" depart="4.55" from="2024#1" to="1703#0" />
    <trip id="92" depart="4.6" from="993#0" to="1943#1" />
    <trip id="93" depart="4.65" from="1996#2" to="2040#0" />
    <trip id="94" depart="4.7" from="1909" to="193#6" />
    <trip id="95" depart="4.75" from="534#1" to="-1070#0" />
    <trip id="96" depart="4.8" from="1530#5" to="-686#0" />
    <trip id="97" depart="4.85" from="-510#2" to="-518#3" />
    <trip id="98" depart="4.9" from="-214#1" to="1172" />
    <trip id="99" depart="4.95" from="193#2" to="-193#6" />
    <trip id="100" depart="5.0" from="-1527#1" to="1138#1" />
    <trip id="101" depart="5.05" from="-27#8" to="-95#0" />
    <trip id="102" depart="5.1" from="167#4" to="2036#3" />
    <trip id="103" depart="5.15" from="-151#3" to="1465" />
    <trip id="104" depart="5.2" from="509#1" to="777" />
    <trip id="105" depart="5.25" from="-1527#0" to="-1378" />
    <trip id="106" depart="5.3" from="814#1" to="-865#0" />
    <trip id="107" depart="5.35" from="309#6" to="253#0" />
    <trip id="108" depart="5.4" from="1473#5" to="989#9" />
    <trip id="109" depart="5.45" from="160#0" to="1841#1" />
    <trip id="110" depart="5.5" from="1156#2" to="-523#1" />
    <trip id="111" depart="5.55" from="1900#4" to="207#1" />
    <trip id="112" depart="5.6" from="-1538" to="-1524#1" />
    <trip id="113" depart="5.65" from="1119#1" to="1529#2" />
    <trip id="114" depart="5.7" from="-935#1" to="1029" />
    <trip id="115" depart="5.75" from="1819#2" to="-708" />
    <trip id="116" depart="5.8" from="-511" to="-841#1" />
    <trip id="117" depart="5.85" from="1140#2" to="929#1" />
    <trip id="118" depart="5.9" from="1155#0" to="-619#7" />
    <trip id="119" depart="5.95" from="1042#5" to="-686#2" />
    <trip id="120" depart="6.0" from="1836" to="1062#4" />
    <trip id="121" depart="6.05" from="222" to="-716#2" />
    <trip id="122" depart="6.1" from="509#1" to="-618#1" />
    <trip id="123" depart="6.15" from="-137" to="1799#1" />
    <trip id="124" depart="6.2" from="90#3" to="-390" />
    <trip id="125" depart="6.25" from="1107#1" to="113#1" />
    <trip id="126" depart="6.3" from="167#0" to="-27#14" />
    <trip id="127" depart="6.35" from="309#6" to="879#0" />
    <trip id="128" depart="6.4" from="-1030#1" to="-947#1" />
    <trip id="129" depart="6.45" from="1155#1" to="316" />
    <trip id="130" depart="6.5" from="-156#2" to="912#0" />
    <trip id="131" depart="6.55" from="1125#1" to="-1752#0" />
    <trip id="132" depart="6.6" from="1798#1" to="330#2" />
    <trip id="133" depart="6.65" from="841#2" to="-1107#0" />
    <trip id="134" depart="6.7" from="126#0" to="45" />
    <trip id="135" depart="6.75" from="-1526" to="-1900#7" />
    <trip id="136" depart="6.8" from="-2046#1" to="429#0" />
    <trip id="137" depart="6.85" from="1809" to="1999#6" />
    <trip id="138" depart="6.9" from="-122" to="957#0" />
    <trip id="139" depart="6.95" from="-124#0" to="-345#0" />
    <trip id="140" depart="7.0" from="-227#0" to="-1107#0" />
    <trip id="141" depart="7.05" from="2005" to="-1492#0" />
    <trip id="142" depart="7.1" from="-1916#0" to="95#1" />
    <trip id="143" depart="7.15" from="372" to="109" />
    <trip id="144" depart="7.2" from="640#0" to="-553#1" />
    <trip id="145" depart="7.25" from="1800#3" to="938#0" />
    <trip id="146" depart="7.3" from="-1117" to="841#2" />
    <trip id="147" depart="7.35" from="1816" to="-2046#1" />
    <trip id="148" depart="7.4" from="1472#0" to="935#0" />
    <trip id="149" depart="7.45" from="-1109" to="2020#3" />
    <trip id="150" depart="7.5" from="-1492#0" to="-1492#1" />
    <trip id="151" depart="7.55" from="430#0" to="1709" />
    <trip id="152" depart="7.6" from="1079#4" to="1126#0" />
    <trip id="153" depart="7.65" from="1549" to="931#3" />
    <trip id="154" depart="7.7" from="1003#0" to="214#2" />
    <trip id="155" depart="7.75" from="-167#19" to="1953" />
    <trip id="156" depart="7.8" from="1811#1" to="-947#4" />
    <trip id="157" depart="7.85" from="952#6" to="1158#1" />
    <trip id="158" depart="7.9" from="865#2" to="-253#1" />
    <trip id="159" depart="7.95" from="-193#5" to="333#0" />
    <trip id="160" depart="8.0" from="-223#0" to="20#1" />
    <trip id="161" depart="8.05" from="-410#2" to="2039#0" />
    <trip id="162" depart="8.1" from="-886#1" to="1026#0" />
    <trip id="163" depart="8.15" from="1522#0" to="-115" />
    <trip id="164" depart="8.2" from="258#2" to="1894" />
    <trip id="165" depart="8.25" from="-83#5" to="-514#1" />
    <trip id="166" depart="8.3" from="-193#3" to="1901#0" />
    <trip id="167" depart="8.35" from="-380#0" to="878#2" />
    <trip id="168" depart="8.4" from="-1536" to="-1378" />
    <trip id="169" depart="8.45" from="1140#3" to="510#0" />
    <trip id="170" depart="8.5" from="163#1" to="1041#3" />
    <trip id="171" depart="8.55" from="-485#0" to="2046#2" />
    <trip id="172" depart="8.6" from="1826" to="1500#0" />
    <trip id="173" depart="8.65" from="452#1" to="-776#0" />
    <trip id="174" depart="8.7" from="-1522#5" to="373#3" />
    <trip id="175" depart="8.75" from="-1564#0" to="1005#1" />
    <trip id="176" depart="8.8" from="-433#4" to="193#6" />
    <trip id="177" depart="8.85" from="-1110#4" to="1480" />
    <trip id="178" depart="8.9" from="-1936#1" to="-1900#1" />
    <trip id="179" depart="8.95" from="1024#0" to="1073#0" />
    <trip id="180" depart="9.0" from="1965#2" to="1687" />
    <trip id="181" depart="9.05" from="1874" to="-410#1" />
    <trip id="182" depart="9.1" from="-258#3" to="-432#0" />
    <trip id="183" depart="9.15" from="1944#0" to="509#1" />
    <trip id="184" depart="9.2" from="1811#1" to="1545#0" />
    <trip id="185" depart="9.25" from="1153" to="83#8" />
    <trip id="186" depart="9.3" from="-344#1" to="1965#0" />
    <trip id="187" depart="9.35" from="232#0" to="955#0" />
    <trip id="188" depart="9.4" from="-122" to="1971#2" />
    <trip id="189" depart="9.45" from="-709" to="1818#1" />
    <trip id="190" depart="9.5" from="1152#1" to="-534#2" />
    <trip id="191" depart="9.55" from="-425" to="426#3" />
    <trip id="192" depart="9.6" from="151#0" to="-1558" />
    <trip id="193" depart="9.65" from="765#2" to="859#0" />
    <trip id="194" depart="9.7" from="-616#1" to="976#1" />
    <trip id="195" depart="9.75" from="26#0" to="1752#2" />
    <trip id="196" depart="9.8" from="488" to="616#2" />
    <trip id="197" depart="9.85" from="1100" to="-1030#1" />
    <trip id="198" depart="9.9" from="2024#0" to="930#3" />
    <trip id="199" depart="9.95" from="2041#0" to="-167#0" />
    <trip id="200" depart="10.0" from="956#0" to="1049" />
    <trip id="201" depart="10.05" from="-139#1" to="-1642" />
    <trip id="202" depart="10.1" from="-215#0" to="-1558" />
    <trip id="203" depart="10.15" from="1473#4" to="-22#0" />
    <trip id="204" depart="10.2" from="1801#0" to="933" />
    <trip id="205" depart="10.25" from="-203#1" to="766#1" />
    <trip id="206" depart="10.3" from="-223#3" to="1497#2" />
    <trip id="207" depart="10.35" from="1489#1" to="1499" />
    <trip id="208" depart="10.4" from="1949#1" to="2002" />
    <trip id="209" depart="10.45" from="952#2" to="-1522#4" />
    <trip id="210" depart="10.5" from="-904#6" to="139#1" />
    <trip id="211" depart="10.55" from="-342#0" to="28#1" />
    <trip id="212" depart="10.6" from="-232#1" to="1024#4" />
    <trip id="213" depart="10.65" from="859#0" to="-147" />
    <trip id="214" depart="10.7" from="-917" to="859#0" />
    <trip id="215" depart="10.75" from="-1094#0" to="1964#1" />
    <trip id="216" depart="10.8" from="1955" to="184#0" />
    <trip id="217" depart="10.85" from="-151#1" to="1823#1" />
    <trip id="218" depart="10.9" from="1025" to="990#2" />
    <trip id="219" depart="10.95" from="2008#0" to="1069#1" />
    <trip id="220" depart="11.0" from="1953" to="813#0" />
    <trip id="221" depart="11.05" from="-976#2" to="429#1" />
    <trip id="222" depart="11.1" from="-914#1" to="459#6" />
    <trip id="223" depart="11.15" from="1013" to="-177#0" />
    <trip id="224" depart="11.2" from="2012#2" to="1473#3" />
    <trip id="225" depart="11.25" from="884#1" to="-518#1" />
    <trip id="226" depart="11.3" from="1563" to="-436#0" />
    <trip id="227" depart="11.35" from="1921#2" to="1110#2" />
    <trip id="228" depart="11.4" from="1893#1" to="1157#1" />
    <trip id="229" depart="11.45" from="199#0" to="618#3" />
    <trip id="230" depart="11.5" from="639#0" to="-1116#0" />
    <trip id="231" depart="11.55" from="-684#0" to="156#0" />
    <trip id="232" depart="11.6" from="514#3" to="1822" />
    <trip id="233" depart="11.65" from="298#0" to="-879#0" />
    <trip id="234" depart="11.7" from="-878#1" to="864#0" />
    <trip id="235" depart="11.75" from="-101#2" to="645#1" />
    <trip id="236" depart="11.8" from="-885#1" to="-1528#3" />
    <trip id="237" depart="11.85" from="-1557" to="26#1" />
    <trip id="238" depart="11.9" from="1841#1" to="1062#0" />
    <trip id="239" depart="11.95" from="139#1" to="-1378" />
    <trip id="240" depart="12.0" from="-1900#6" to="-1785#2" />
    <trip id="241" depart="12.05" from="2019#1" to="1155#1" />
    <trip id="242" depart="12.1" from="27#4" to="1942" />
    <trip id="243" depart="12.15" from="324#0" to="951#1" />
    <trip id="244" depart="12.2" from="-332" to="904#8" />
    <trip id="245" depart="12.25" from="-1003#1" to="-1008#1" />
    <trip id="246" depart="12.3" from="1824" to="27#18" />
    <trip id="247" depart="12.35" from="1042#0" to="331#3" />
    <trip id="248" depart="12.4" from="1915" to="910" />
    <trip id="249" depart="12.45" from="-1098#2" to="167#9" />
    <trip id="250" depart="12.5" from="-1492#2" to="1498" />
    <trip id="251" depart="12.55" from="-685#2" to="1098#3" />
    <trip id="252" depart="12.6" from="1004#2" to="117#1" />
    <trip id="253" depart="12.65" from="510#1" to="167#21" />
    <trip id="254" depart="12.7" from="193#1" to="952#3" />
    <trip id="255" depart="12.75" from="-1134" to="-1561#1" />
    <trip id="256" depart="12.8" from="-428" to="1069#0" />
    <trip id="257" depart="12.85" from="-1109" to="716#2" />
    <trip id="258" depart="12.9" from="-510#2" to="298#4" />
    <trip id="259" depart="12.95" from="-119#0" to="-957#0" />
    <trip id="260" depart="13.0" from="814#1" to="-184#0" />
    <trip id="261" depart="13.05" from="-1846#2" to="1921#3" />
    <trip id="262" depart="13.1" from="1046#2" to="1528#3" />
    <trip id="263" depart="13.15" from="432#0" to="-1#0" />
    <trip id="264" depart="13.2" from="2003#2" to="238" />
    <trip id="265" depart="13.25" from="-684#5" to="218#2" />
    <trip id="266" depart="13.3" from="-957#0" to="-43#2" />
    <trip id="267" depart="13.35" from="1914" to="-530" />
    <trip id="268" depart="13.4" from="1150#2" to="1062#3" />
    <trip id="269" depart="13.45" from="114#1" to="-172#1" />
    <trip id="270" depart="13.5" from="-163#1" to="195" />
    <trip id="271" depart="13.55" from="-917" to="-218#0" />
    <trip id="272" depart="13.6" from="-1535" to="-976#2" />
    <trip id="273" depart="13.65" from="678#0" to="87#2" />
    <trip id="274" depart="13.7" from="514#4" to="-814#1" />
    <trip id="275" depart="13.75" from="-635" to="198" />
    <trip id="276" depart="13.8" from="1476#1" to="-346#0" />
    <trip id="277" depart="13.85" from="331#4" to="514#1" />
    <trip id="278" depart="13.9" from="1915" to="1060" />
    <trip id="279" depart="13.95" from="1046#0" to="-1076#0" />
    <trip id="280" depart="14.0" from="1558" to="86" />
    <trip id="281" depart="14.05" from="2020#2" to="1870#2" />
    <trip id="282" depart="14.1" from="1623#0" to="972#3" />
    <trip id="283" depart="14.15" from="1170#1" to="1828" />
    <trip id="284" depart="14.2" from="-260#1" to="-223#1" />
    <trip id="285" depart="14.25" from="1678" to="-709" />
    <trip id="286" depart="14.3" from="1110#0" to="1841#2" />
    <trip id="287" depart="14.35" from="1473#4" to="87#2" />
    <trip id="288" depart="14.4" from="-991#0" to="1042#4" />
    <trip id="289" depart="14.45" from="1061#2" to="1528#3" />
    <trip id="290" depart="14.5" from="24#0" to="1480" />
    <trip id="291" depart="14.55" from="1027" to="-83#5" />
    <trip id="292" depart="14.6" from="113#0" to="1140#1" />
    <trip id="293" depart="14.65" from="1073#1" to="-1900#3" />
    <trip id="294" depart="14.7" from="1716" to="1017" />
    <trip id="295" depart="14.75" from="1544" to="1913#3" />
    <trip id="296" depart="14.8" from="163#2" to="930#1" />
    <trip id="297" depart="14.85" from="930#0" to="-967#0" />
    <trip id="298" depart="14.9" from="930#4" to="1492#0" />
    <trip id="299" depart="14.95" from="1170#0" to="1927#2" />
    <trip id="300" depart="15.0" from="2008#1" to="-126#0" />
    <trip id="301" depart="15.05" from="-1165#2" to="-638" />
    <trip id="302" depart="15.1" from="385" to="-467#1" />
    <trip id="303" depart="15.15" from="1049" to="132#0" />
    <trip id="304" depart="15.2" from="1044" to="-162#0" />
    <trip id="305" depart="15.25" from="-124#0" to="1900#6" />
    <trip id="306" depart="15.3" from="1138#0" to="1530#4" />
    <trip id="307" depart="15.35" from="73" to="1669" />
    <trip id="308" depart="15.4" from="936" to="1893#1" />
    <trip id="309" depart="15.45" from="-619#4" to="2007#1" />
    <trip id="310" depart="15.5" from="1875#3" to="-864#1" />
    <trip id="311" depart="15.55" from="-932#3" to="2046#5" />
    <trip id="312" depart="15.6" from="-1041#2" to="1155#2" />
    <trip id="313" depart="15.65" from="-510#1" to="1994" />
    <trip id="314" depart="15.7" from="320#6" to="167#12" />
    <trip id="315" depart="15.75" from="1544" to="-2004" />
    <trip id="316" depart="15.8" from="-232#0" to="-619#7" />
    <trip id="317" depart="15.85" from="-518#4" to="2014#1" />
    <trip id="318" depart="15.9" from="1964#2" to="1961#1" />
    <trip id="319" depart="15.95" from="-684#2" to="215#2" />
    <trip id="320" depart="16.0" from="-946#7" to="1865" />
    <trip id="321" depart="16.05" from="1480" to="253#1" />
    <trip id="322" depart="16.1" from="-677#1" to="-887" />
    <trip id="323" depart="16.15" from="-27#1" to="-203#3" />
    <trip id="324" depart="16.2" from="501#1" to="1153" />
    <trip id="325" depart="16.25" from="1971#2" to="-1041#0" />
    <trip id="326" depart="16.3" from="23#0" to="-96" />
    <trip id="327" depart="16.35" from="904#0" to="514#4" />
    <trip id="328" depart="16.4" from="1841#2" to="336" />
    <trip id="329" depart="16.45" from="932#4" to="-686#2" />
    <trip id="330" depart="16.5" from="-1528#6" to="-167#1" />
    <trip id="331" depart="16.55" from="22#3" to="27#3" />
    <trip id="332" depart="16.6" from="501#0" to="-27#13" />
    <trip id="333" depart="16.65" from="2032" to="67" />
    <trip id="334" depart="16.7" from="22#9" to="2004" />
    <trip id="335" depart="16.75" from="-1174#2" to="-1623#1" />
    <trip id="336" depart="16.8" from="-1119#1" to="-710#2" />
    <trip id="337" depart="16.85" from="1005#0" to="1158#1" />
    <trip id="338" depart="16.9" from="1141" to="2046#9" />
    <trip id="339" depart="16.95" from="514#3" to="946#8" />
    <trip id="340" depart="17.0" from="-878#2" to="1949#3" />
    <trip id="341" depart="17.05" from="1935" to="-1024#1" />
    <trip id="342" depart="17.1" from="2039#1" to="-1098#2" />
    <trip id="343" depart="17.15" from="1971#0" to="997#1" />
    <trip id="344" depart="17.2" from="-22#9" to="1822" />
    <trip id="345" depart="17.25" from="949#3" to="27#16" />
    <trip id="346" depart="17.3" from="776#0" to="-1023" />
    <trip id="347" depart="17.35" from="-422#2" to="-1110#0" />
    <trip id="348" depart="17.4" from="1841#1" to="27#13" />
    <trip id="349" depart="17.45" from="-918#1" to="1476#1" />
    <trip id="350" depart="17.5" from="1975" to="1900#3" />
    <trip id="351" depart="17.55" from="1174#1" to="639#1" />
    <trip id="352" depart="17.6" from="175" to="-514#11" />
    <trip id="353" depart="17.65" from="433#2" to="309#3" />
    <trip id="354" depart="17.7" from="1168" to="-27#16" />
    <trip id="355" depart="17.75" from="27#16" to="1811#0" />
    <trip id="356" depart="17.8" from="841#2" to="2027#0" />
    <trip id="357" depart="17.85" from="422#2" to="1537#1" />
    <trip id="358" depart="17.9" from="1530#4" to="1480" />
    <trip id="359" depart="17.95" from="1555#2" to="1546#1" />
    <trip id="360" depart="18.0" from="-1083#1" to="913" />
    <trip id="361" depart="18.05" from="436#1" to="2016" />
    <trip id="362" depart="18.1" from="-167#22" to="-841#2" />
    <trip id="363" depart="18.15" from="765#4" to="-1538" />
    <trip id="364" depart="18.2" from="-645#0" to="989#1" />
    <trip id="365" depart="18.25" from="26#0" to="184#0" />
    <trip id="366" depart="18.3" from="-1110#2" to="1476#3" />
    <trip id="367" depart="18.35" from="514#14" to="684#2" />
    <trip id="368" depart="18.4" from="1527#2" to="765#3" />
    <trip id="369" depart="18.45" from="-1530#1" to="-1900#5" />
    <trip id="370" depart="18.5" from="-1165#2" to="193#1" />
    <trip id="371" depart="18.55" from="-433#1" to="1715#2" />
    <trip id="372" depart="18.6" from="1999#0" to="2039#0" />
    <trip id="373" depart="18.65" from="1527#0" to="961" />
    <trip id="374" depart="18.7" from="-991#0" to="1004#2" />
    <trip id="375" depart="18.75" from="-989#11" to="-7#0" />
    <trip id="376" depart="18.8" from="426#1" to="-989#2" />
    <trip id="377" depart="18.85" from="-1520" to="487#0" />
    <trip id="378" depart="18.9" from="-967#2" to="-49" />
    <trip id="379" depart="18.95" from="193#5" to="1999#5" />
    <trip id="380" depart="19.0" from="-2046#6" to="-459#6" />
    <trip id="381" depart="19.05" from="-510#0" to="534#3" />
    <trip id="382" depart="19.1" from="430#0" to="-426#3" />
    <trip id="383" depart="19.15" from="-1623#0" to="343" />
    <trip id="384" depart="19.2" from="1099" to="-989#6" />
    <trip id="385" depart="19.25" from="1945#1" to="1065" />
    <trip id="386" depart="19.3" from="-309#3" to="-223#3" />
    <trip id="387" depart="19.35" from="-95#0" to="1963#0" />
    <trip id="388" depart="19.4" from="-501#0" to="1893#3" />
    <trip id="389" depart="19.45" from="195" to="-1533#0" />
    <trip id="390" depart="19.5" from="1867#2" to="-158" />
    <trip id="391" depart="19.55" from="1108" to="1066" />
    <trip id="392" depart="19.6" from="-1026#0" to="-1555#1" />
    <trip id="393" depart="19.65" from="-639#0" to="-90#2" />
    <trip id="394" depart="19.7" from="-1527#2" to="501#1" />
    <trip id="395" depart="19.75" from="-147" to="-403" />
    <trip id="396" depart="19.8" from="1840" to="-99#0" />
    <trip id="397" depart="19.85" from="-167#10" to="897#1" />
    <trip id="398" depart="19.9" from="514#6" to="554" />
    <trip id="399" depart="19.95" from="-993#2" to="426#2" />
    <trip id="400" depart="20.0" from="31" to="1929#4" />
    <trip id="401" depart="20.05" from="1875#4" to="1867#2" />
    <trip id="402" depart="20.1" from="40" to="342#1" />
    <trip id="403" depart="20.15" from="1478#3" to="-160#1" />
    <trip id="404" depart="20.2" from="1841#0" to="286#0" />
    <trip id="405" depart="20.25" from="208#1" to="-411#0" />
    <trip id="406" depart="20.3" from="-177#1" to="1922#0" />
    <trip id="407" depart="20.35" from="346#0" to="1980#2" />
    <trip id="408" depart="20.4" from="523#0" to="1016" />
    <trip id="409" depart="20.45" from="-116" to="1476#3" />
    <trip id="410" depart="20.5" from="1089" to="2014#1" />
    <trip id="411" depart="20.55" from="-467#1" to="426#1" />
    <trip id="412" depart="20.6" from="-888#2" to="-947#0" />
    <trip id="413" depart="20.65" from="1107#1" to="1057#0" />
    <trip id="414" depart="20.7" from="-391" to="324#2" />
    <trip id="415" depart="20.75" from="-1132#0" to="1935" />
    <trip id="416" depart="20.8" from="-841#1" to="-514#8" />
    <trip id="417" depart="20.85" from="-534#1" to="1107#1" />
    <trip id="418" depart="20.9" from="-200#1" to="1939#2" />
    <trip id="419" depart="20.95" from="888#0" to="1478#3" />
    <trip id="420" depart="21.0" from="2001#2" to="117#0" />
    <trip id="421" depart="21.05" from="927#0" to="904#1" />
    <trip id="422" depart="21.1" from="888#2" to="2001#0" />
    <trip id="423" depart="21.15" from="-1054" to="163#0" />
    <trip id="424" depart="21.2" from="776#0" to="-194#0" />
    <trip id="425" depart="21.25" from="766#1" to="2024#1" />
    <trip id="426" depart="21.3" from="-83#8" to="1929#1" />
    <trip id="427" depart="21.35" from="1079#3" to="-167#3" />
    <trip id="428" depart="21.4" from="-1550" to="1965#2" />
    <trip id="429" depart="21.45" from="1900#3" to="1896" />
    <trip id="430" depart="21.5" from="1156#0" to="-114#0" />
    <trip id="431" depart="21.55" from="1489#2" to="-198" />
    <trip id="432" depart="21.6" from="971" to="1812" />
    <trip id="433" depart="21.65" from="151#3" to="1026#2" />
    <trip id="434" depart="21.7" from="914#4" to="1902#1" />
    <trip id="435" depart="21.75" from="864#0" to="1949#1" />
    <trip id="436" depart="21.8" from="333#3" to="619#7" />
    <trip id="437" depart="21.85" from="1478#1" to="435#0" />
    <trip id="438" depart="21.9" from="167#20" to="1890" />
    <trip id="439" depart="21.95" from="1995" to="1972#1" />
    <trip id="440" depart="22.0" from="510#0" to="1721" />
    <trip id="441" depart="22.05" from="151#2" to="119#1" />
    <trip id="442" depart="22.1" from="218#0" to="-2046#0" />
    <trip id="443" depart="22.15" from="919#0" to="380#2" />
    <trip id="444" depart="22.2" from="379" to="1492#2" />
    <trip id="445" depart="22.25" from="1937" to="197#0" />
    <trip id="446" depart="22.3" from="-1918#2" to="1492#3" />
    <trip id="447" depart="22.35" from="1528#0" to="2014#2" />
    <trip id="448" depart="22.4" from="-957#1" to="-136" />
    <trip id="449" depart="22.45" from="-1528#2" to="58#1" />
    <trip id="450" depart="22.5" from="1891" to="1867#2" />
    <trip id="451" depart="22.55" from="1894" to="-503" />
    <trip id="452" depart="22.6" from="-1537#2" to="-776#1" />
    <trip id="453" depart="22.65" from="-675#0" to="1871#0" />
    <trip id="454" depart="22.7" from="1916#1" to="1051" />
    <trip id="455" depart="22.75" from="-1564#0" to="1902#5" />
    <trip id="456" depart="22.8" from="1915" to="-932#0" />
    <trip id="457" depart="22.85" from="1126#0" to="719#1" />
    <trip id="458" depart="22.9" from="-518#3" to="1480" />
    <trip id="459" depart="22.95" from="-680#2" to="1697" />
    <trip id="460" depart="23.0" from="1506#0" to="119#2" />
    <trip id="461" depart="23.05" from="227#1" to="-989#11" />
    <trip id="462" depart="23.1" from="-1531" to="1079#3" />
    <trip id="463" depart="23.15" from="996#3" to="22#5" />
    <trip id="464" depart="23.2" from="-510#0" to="22#2" />
    <trip id="465" depart="23.25" from="501#1" to="-115" />
    <trip id="466" depart="23.3" from="1074#2" to="-22#7" />
    <trip id="467" depart="23.35" from="930#0" to="884#1" />
    <trip id="468" depart="23.4" from="-1092#0" to="330#1" />
    <trip id="469" depart="23.45" from="167#10" to="1084" />
    <trip id="470" depart="23.5" from="1918#0" to="813#0" />
    <trip id="471" depart="23.55" from="1473#7" to="-237#0" />
    <trip id="472" depart="23.6" from="238" to="203#1" />
    <trip id="473" depart="23.65" from="-163#2" to="-167#6" />
    <trip id="474" depart="23.7" from="-159" to="1150#1" />
    <trip id="475" depart="23.75" from="2007#2" to="-889#1" />
    <trip id="476" depart="23.8" from="-675#1" to="-156#0" />
    <trip id="477" depart="23.85" from="1068#1" to="1079#2" />
    <trip id="478" depart="23.9" from="1472#0" to="-865#1" />
    <trip id="479" depart="23.95" from="1054" to="-27#16" />
    <trip id="480" depart="24.0" from="-147" to="-924" />
    <trip id="481" depart="24.05" from="7#0" to="1554#0" />
    <trip id="482" depart="24.1" from="1528#3" to="171#0" />
    <trip id="483" depart="24.15" from="972#4" to="1170#0" />
    <trip id="484" depart="24.2" from="435#2" to="932#4" />
    <trip id="485" depart="24.25" from="1153" to="207#1" />