<?xml version="1.0"?>
<trips>
    <trip id="0" depart="0.0" from="776#0" to="486#0" />
    <trip id="1" depart="0.05" from="-859#1" to="121" />
    <trip id="2" depart="0.1" from="1154#3" to="-935#1" />
    <trip id="3" depart="0.15" from="371#0" to="-287" />
    <trip id="4" depart="0.2" from="2031#2" to="-436#2" />
    <trip id="5" depart="0.25" from="-966#1" to="-227#0" />
    <trip id="6" depart="0.3" from="-152#1" to="1677" />
    <trip id="7" depart="0.35" from="895#0" to="1980#1" />
    <trip id="8" depart="0.4" from="-90#2" to="371#2" />
    <trip id="9" depart="0.45" from="1712#0" to="2001#4" />
    <trip id="10" depart="0.5" from="1712#0" to="-946#5" />
    <trip id="11" depart="0.55" from="2020#0" to="-949#3" />
    <trip id="12" depart="0.6" from="1963#1" to="167#19" />
    <trip id="13" depart="0.65" from="1533#1" to="616#3" />
    <trip id="14" depart="0.7" from="1871#1" to="1015" />
    <trip id="15" depart="0.75" from="1137#0" to="996#3" />
    <trip id="16" depart="0.8" from="-1522#0" to="1469#1" />
    <trip id="17" depart="0.85" from="956#2" to="-1530#0" />
    <trip id="18" depart="0.9" from="1846#2" to="-989#11" />
    <trip id="19" depart="0.95" from="1785#0" to="55" />
    <trip id="20" depart="1.0" from="1958" to="1996#0" />
    <trip id="21" depart="1.05" from="-2046#8" to="-1#0" />
    <trip id="22" depart="1.1" from="1163" to="1563" />
    <trip id="23" depart="1.15" from="-864#0" to="-14" />
    <trip id="24" depart="1.2" from="167#14" to="-101#3" />
    <trip id="25" depart="1.25" from="919#2" to="864#0" />
    <trip id="26" depart="1.3" from="1943#2" to="976#0" />
    <trip id="27" depart="1.35" from="1910" to="1148" />
    <trip id="28" depart="1.4" from="-27#14" to="27#2" />
    <trip id="29" depart="1.45" from="237#0" to="1840" />
    <trip id="30" depart="1.5" from="-167#2" to="1715#1" />
    <trip id="31" depart="1.55" from="976#1" to="17#2" />
    <trip id="32" depart="1.6" from="114#1" to="1928#1" />
    <trip id="33" depart="1.65" from="-618#2" to="1043#1" />
    <trip id="34" depart="1.7" from="-2046#0" to="1697" />
    <trip id="35" depart="1.75" from="-1522#2" to="1494" />
    <trip id="36" depart="1.8" from="1473#5" to="-715#0" />
    <trip id="37" depart="1.85" from="-619#5" to="1010#1" />
    <trip id="38" depart="1.9" from="1916#1" to="-1545#0" />
    <trip id="39" depart="1.95" from="22#7" to="2018#1" />
    <trip id="40" depart="2.0" from="282#6" to="946#5" />
    <trip id="41" depart="2.05" from="1016" to="9#5" />
    <trip id="42" depart="2.1" from="1830#1" to="1973#0" />
    <trip id="43" depart="2.15" from="22#3" to="2002" />
    <trip id="44" depart="2.2" from="1064" to="1159#1" />
    <trip id="45" depart="2.25" from="2033#3" to="1684#2" />
    <trip id="46" depart="2.3" from="919#5" to="912#3" />
    <trip id="47" depart="2.35" from="1929#9" to="1172" />
    <trip id="48" depart="2.4" from="-116" to="-83#9" />
    <trip id="49" depart="2.45" from="1950" to="1918#0" />
    <trip id="50" depart="2.5" from="227#1" to="258#1" />
    <trip id="51" depart="2.55" from="-904#5" to="1642" />
    <trip id="52" depart="2.6" from="-309#5" to="-101#2" />
    <trip id="53" depart="2.65" from="2030#2" to="-226" />
    <trip id="54" depart="2.7" from="996#2" to="22#7" />
    <trip id="55" depart="2.75" from="-1252" to="1505#1" />
    <trip id="56" depart="2.8" from="-841#3" to="619#5" />
    <trip id="57" depart="2.85" from="1483#0" to="1846#2" />
    <trip id="58" depart="2.9" from="380#2" to="151#3" />
    <trip id="59" depart="2.95" from="-24#1" to="-1109" />
    <trip id="60" depart="3.0" from="1486" to="715#2" />
    <trip id="61" depart="3.05" from="1489#2" to="1704" />
    <trip id="62" depart="3.1" from="-301#1" to="487#1" />
    <trip id="63" depart="3.15" from="-132#3" to="1536" />
    <trip id="64" depart="3.2" from="-203#2" to="-2046#7" />
    <trip id="65" depart="3.25" from="1906" to="514#13" />
    <trip id="66" depart="3.3" from="410#2" to="-903#1" />
    <trip id="67" depart="3.35" from="1964#2" to="927#1" />
    <trip id="68" depart="3.4" from="1527#3" to="1150#0" />
    <trip id="69" depart="3.45" from="-947#5" to="-514#1" />
    <trip id="70" depart="3.5" from="373#0" to="1546#0" />
    <trip id="71" depart="3.55" from="1675" to="-1459#1" />
    <trip id="72" depart="3.6" from="197#2" to="-114#0" />
    <trip id="73" depart="3.65" from="-946#3" to="841#4" />
    <trip id="74" depart="3.7" from="-27#17" to="914#4" />
    <trip id="75" depart="3.75" from="1998#3" to="1083#1" />
    <trip id="76" depart="3.8" from="17#1" to="308#0" />
    <trip id="77" depart="3.85" from="309#0" to="-426#2" />
    <trip id="78" depart="3.9" from="-1132#1" to="939" />
    <trip id="79" depart="3.95" from="1530#1" to="83#6" />
    <trip id="80" depart="4.0" from="-167#15" to="-113#0" />
    <trip id="81" depart="4.05" from="-1526" to="1709" />
    <trip id="82" depart="4.1" from="-207#0" to="-425" />
    <trip id="83" depart="4.15" from="2034" to="1147" />
    <trip id="84" depart="4.2" from="1971#0" to="1893#3" />
    <trip id="85" depart="4.25" from="-102#0" to="-619#3" />
    <trip id="86" depart="4.3" from="-253#1" to="-410#1" />
    <trip id="87" depart="4.35" from="1919#1" to="-918#1" />
    <trip id="88" depart="4.4" from="27#4" to="2036#1" />
    <trip id="89" depart="4.45" from="-927#1" to="9#1" />
    <trip id="90" depart="4.5" from="1466#2" to="-1459#0" />
    <trip id="91" depart="4.55" from="1528#6" to="197#2" />
    <trip id="92" depart="4.6" from="-991#0" to="-184#1" />
    <trip id="93" depart="4.65" from="1137#1" to="-1023" />
    <trip id="94" depart="4.7" from="-410#2" to="1155#1" />
    <trip id="95" depart="4.75" from="-151#4" to="-1093" />
    <trip id="96" depart="4.8" from="1046#2" to="1165#2" />
    <trip id="97" depart="4.85" from="919#0" to="914#0" />
    <trip id="98" depart="4.9" from="487#0" to="511" />
    <trip id="99" depart="4.95" from="-27#16" to="1487#0" />
    <trip id="100" depart="5.0" from="-459#5" to="1167" />
    <trip id="101" depart="5.05" from="1819#0" to="1696" />
    <trip id="102" depart="5.1" from="65" to="1140#2" />
    <trip id="103" depart="5.15" from="-338#0" to="-967#2" />
    <trip id="104" depart="5.2" from="-194#1" to="-467#1" />
    <trip id="105" depart="5.25" from="1900#2" to="-196" />
    <trip id="106" depart="5.3" from="947#5" to="-709" />
    <trip id="107" depart="5.35" from="-1850" to="2011#1" />
    <trip id="108" depart="5.4" from="1555#0" to="-162#0" />
    <trip id="109" depart="5.45" from="1124#1" to="684#4" />
    <trip id="110" depart="5.5" from="1832#1" to="972#3" />
    <trip id="111" depart="5.55" from="-1563" to="1527#0" />
    <trip id="112" depart="5.6" from="-109" to="-167#2" />
    <trip id="113" depart="5.65" from="-113#2" to="1478#1" />
    <trip id="114" depart="5.7" from="449" to="-162#2" />
    <trip id="115" depart="5.75" from="916" to="-514#0" />
    <trip id="116" depart="5.8" from="-1169#1" to="459#2" />
    <trip id="117" depart="5.85" from="685#1" to="2003#1" />
    <trip id="118" depart="5.9" from="73" to="-403" />
    <trip id="119" depart="5.95" from="1146" to="-1554#1" />
    <trip id="120" depart="6.0" from="-1124#0" to="58#0" />
    <trip id="121" depart="6.05" from="-336" to="1873" />
    <trip id="122" depart="6.1" from="298#3" to="435#2" />
    <trip id="123" depart="6.15" from="1943#1" to="1973#0" />
    <trip id="124" depart="6.2" from="922" to="1670" />
    <trip id="125" depart="6.25" from="-132#3" to="-887" />
    <trip id="126" depart="6.3" from="200#1" to="1104#1" />
    <trip id="127" depart="6.35" from="-27#17" to="2016" />
    <trip id="128" depart="6.4" from="-1522#5" to="915#1" />
    <trip id="129" depart="6.45" from="-258#3" to="83#7" />
    <trip id="130" depart="6.5" from="685#0" to="1752#2" />
    <trip id="131" depart="6.55" from="-1120" to="1832#0" />
    <trip id="132" depart="6.6" from="-1530#4" to="1867#0" />
    <trip id="133" depart="6.65" from="1165#4" to="-765#0" />
    <trip id="134" depart="6.7" from="947#2" to="-1936#0" />
    <trip id="135" depart="6.75" from="1007#2" to="924" />
    <trip id="136" depart="6.8" from="640#0" to="1872" />
    <trip id="137" depart="6.85" from="-949#4" to="-1555#0" />
    <trip id="138" depart="6.9" from="-619#0" to="1564#1" />
    <trip id="139" depart="6.95" from="-336" to="81#1" />
    <trip id="140" depart="7.0" from="28#2" to="645#0" />
    <trip id="141" depart="7.05" from="951#1" to="282#2" />
    <trip id="142" depart="7.1" from="-432#2" to="-27#18" />
    <trip id="143" depart="7.15" from="933" to="-232#0" />
    <trip id="144" depart="7.2" from="1463" to="101#3" />
    <trip id="145" depart="7.25" from="518#0" to="1099" />
    <trip id="146" depart="7.3" from="-167#5" to="1785#1" />
    <trip id="147" depart="7.35" from="772" to="1891" />
    <trip id="148" depart="7.4" from="-619#0" to="-1546#0" />
    <trip id="149" depart="7.45" from="915#2" to="897#1" />
    <trip id="150" depart="7.5" from="-1718" to="-27#4" />
    <trip id="151" depart="7.55" from="-1540" to="1489#2" />
    <trip id="152" depart="7.6" from="2027#1" to="-1008#0" />
    <trip id="153" depart="7.65" from="1931#2" to="1920" />
    <trip id="154" depart="7.7" from="1061#0" to="-991#0" />
    <trip id="155" depart="7.75" from="884#0" to="-448" />
    <trip id="156" depart="7.8" from="1941#2" to="-889#0" />
    <trip id="157" depart="7.85" from="514#10" to="1966#1" />
    <trip id="158" depart="7.9" from="1479#1" to="-193#5" />
    <trip id="159" depart="7.95" from="1104#1" to="-616#1" />
    <trip id="160" depart="8.0" from="989#0" to="163#0" />
    <trip id="161" depart="8.05" from="1956" to="1476#4" />
    <trip id="162" depart="8.1" from="294" to="-1555#2" />
    <trip id="163" depart="8.15" from="635" to="-1030#2" />
    <trip id="164" depart="8.2" from="-920#1" to="167#21" />
    <trip id="165" depart="8.25" from="194#2" to="904#2" />
    <trip id="166" depart="8.3" from="1720#2" to="459#6" />
    <trip id="167" depart="8.35" from="436#1" to="-436#0" />
    <trip id="168" depart="8.4" from="2001#2" to="1891" />
    <trip id="169" depart="8.45" from="-1623#2" to="426#0" />
    <trip id="170" depart="8.5" from="2014#3" to="2041#2" />
    <trip id="171" depart="8.55" from="197#1" to="514#3" />
    <trip id="172" depart="8.6" from="-989#1" to="-514#4" />
    <trip id="173" depart="8.65" from="119#1" to="1165#2" />
    <trip id="174" depart="8.7" from="137" to="337" />
    <trip id="175" depart="8.75" from="119#2" to="-27#14" />
    <trip id="176" depart="8.8" from="-937#0" to="976#2" />
    <trip id="177" depart="8.85" from="1088" to="1014#1" />
    <trip id="178" depart="8.9" from="-1378" to="-83#9" />
    <trip id="179" depart="8.95" from="-1041#0" to="-155" />
    <trip id="180" depart="9.0" from="2034" to="1921#2" />
    <trip id="181" depart="9.05" from="-894#2" to="-813#1" />
    <trip id="182" depart="9.1" from="972#1" to="884#1" />
    <trip id="183" depart="9.15" from="1159#0" to="1107#1" />
    <trip id="184" depart="9.2" from="432#2" to="1147" />
    <trip id="185" depart="9.25" from="422#3" to="2007#1" />
    <trip id="186" depart="9.3" from="-90#4" to="-1093" />
    <trip id="187" depart="9.35" from="-167#1" to="1057#0" />
    <trip id="188" depart="9.4" from="-433#2" to="1857#1" />
    <trip id="189" depart="9.45" from="-1086" to="-814#1" />
    <trip id="190" depart="9.5" from="1487#1" to="1119#1" />
    <trip id="191" depart="9.55" from="1170#0" to="966#1" />
    <trip id="192" depart="9.6" from="904#7" to="-22#6" />
    <trip id="193" depart="9.65" from="952#6" to="260#0" />
    <trip id="194" depart="9.7" from="22#9" to="2014#4" />
    <trip id="195" depart="9.75" from="101#1" to="1537#1" />
    <trip id="196" depart="9.8" from="993#0" to="1154#2" />
    <trip id="197" depart="9.85" from="-776#1" to="1718" />
    <trip id="198" depart="9.9" from="56" to="1546#2" />
    <trip id="199" depart="9.95" from="-2046#1" to="-27#14" />
    <trip id="200" depart="10.0" from="392" to="1944#4" />
    <trip id="201" depart="10.05" from="-9#0" to="308#0" />
    <trip id="202" depart="10.1" from="-163#3" to="514#2" />
    <trip id="203" depart="10.15" from="-534#5" to="1823#1" />
    <trip id="204" depart="10.2" from="-685#1" to="970#0" />
    <trip id="205" depart="10.25" from="-1522#5" to="-343" />
    <trip id="206" depart="10.3" from="970#1" to="1875#3" />
    <trip id="207" depart="10.35" from="2014#2" to="1945#0" />
    <trip id="208" depart="10.4" from="331#3" to="765#1" />
    <trip id="209" depart="10.45" from="-993#0" to="958" />
    <trip id="210" depart="10.5" from="1074#0" to="2046#5" />
    <trip id="211" depart="10.55" from="-90#4" to="26#0" />
    <trip id="212" depart="10.6" from="708" to="11#2" />
    <trip id="213" depart="10.65" from="-200#1" to="1893#3" />
    <trip id="214" depart="10.7" from="-429#1" to="1875#2" />
    <trip id="215" depart="10.75" from="1902#4" to="-309#3" />
    <trip id="216" depart="10.8" from="947#3" to="1469#1" />
    <trip id="217" depart="10.85" from="379" to="918#1" />
    <trip id="218" depart="10.9" from="-1916#1" to="1042#10" />
    <trip id="219" depart="10.95" from="-816" to="1997" />
    <trip id="220" depart="11.0" from="1900#1" to="193#6" />
    <trip id="221" depart="11.05" from="814#1" to="-429#0" />
    <trip id="222" depart="11.1" from="1842#0" to="989#8" />
    <trip id="223" depart="11.15" from="234" to="1488#0" />
    <trip id="224" depart="11.2" from="1030#0" to="1476#1" />
    <trip id="225" depart="11.25" from="-1537#3" to="947#1" />
    <trip id="226" depart="11.3" from="-1096" to="226" />
    <trip id="227" depart="11.35" from="-232#0" to="-719#0" />
    <trip id="228" depart="11.4" from="1996#7" to="349" />
    <trip id="229" depart="11.45" from="8" to="341#1" />
    <trip id="230" depart="11.5" from="1909" to="1808#2" />
    <trip id="231" depart="11.55" from="-433#1" to="-449" />
    <trip id="232" depart="11.6" from="-514#0" to="841#5" />
    <trip id="233" depart="11.65" from="-1527#4" to="1117" />
    <trip id="234" depart="11.7" from="-193#1" to="167#18" />
    <trip id="235" depart="11.75" from="911" to="-935#0" />
    <trip id="236" depart="11.8" from="-1522#5" to="-215#3" />
    <trip id="237" depart="11.85" from="1873" to="-341#0" />
    <trip id="238" depart="11.9" from="919#0" to="-1558" />
    <trip id="239" depart="11.95" from="952#1" to="1904" />
    <trip id="240" depart="12.0" from="-1857#0" to="-715#1" />
    <trip id="241" depart="12.05" from="-841#3" to="-114#1" />
    <trip id="242" depart="12.1" from="-885#0" to="859#0" />
    <trip id="243" depart="12.15" from="-514#8" to="776#0" />
    <trip id="244" depart="12.2" from="-619#2" to="162#2" />
    <trip id="245" depart="12.25" from="-215#0" to="-1541" />
    <trip id="246" depart="12.3" from="865#0" to="1136#0" />
    <trip id="247" depart="12.35" from="163#0" to="-645#2" />
    <trip id="248" depart="12.4" from="1874" to="-1134" />
    <trip id="249" depart="12.45" from="309#4" to="1943#4" />
    <trip id="250" depart="12.5" from="1466#4" to="618#0" />
    <trip id="251" depart="12.55" from="2003#0" to="167#2" />
    <trip id="252" depart="12.6" from="-708" to="1076#1" />
    <trip id="253" depart="12.65" from="-932#3" to="1529#2" />
    <trip id="254" depart="12.7" from="-534#1" to="-1024#0" />
    <trip id="255" depart="12.75" from="1836" to="1528#2" />
    <trip id="256" depart="12.8" from="83#8" to="1964#2" />
    <trip id="257" depart="12.85" from="1108" to="-619#0" />
    <trip id="258" depart="12.9" from="422#3" to="878#0" />
    <trip id="259" depart="12.95" from="1555#2" to="-1900#1" />
    <trip id="260" depart="13.0" from="1125#1" to="1490" />
    <trip id="261" depart="13.05" from="431" to="-111" />
    <trip id="262" depart="13.1" from="-411#1" to="510#2" />
    <trip id="263" depart="13.15" from="950" to="1528#6" />
    <trip id="264" depart="13.2" from="1927#1" to="-1125#0" />
    <trip id="265" depart="13.25" from="1844#1" to="-167#7" />
    <trip id="266" depart="13.3" from="-333#3" to="-1528#4" />
    <trip id="267" depart="13.35" from="27#5" to="1667" />
    <trip id="268" depart="13.4" from="-1551" to="2014#4" />
    <trip id="269" depart="13.45" from="126#1" to="1809" />
    <trip id="270" depart="13.5" from="-7#1" to="341#1" />
    <trip id="271" depart="13.55" from="-95#1" to="1964#1" />
    <trip id="272" depart="13.6" from="324#0" to="1155#2" />
    <trip id="273" depart="13.65" from="1163" to="951#0" />
    <trip id="274" depart="13.7" from="1529#1" to="-675#1" />
    <trip id="275" depart="13.75" from="-991#1" to="1044" />
    <trip id="276" depart="13.8" from="486#1" to="534#2" />
    <trip id="277" depart="13.85" from="1701" to="1902#6" />
    <trip id="278" depart="13.9" from="1011#0" to="-1528#5" />
    <trip id="279" depart="13.95" from="-989#8" to="-947#5" />
    <trip id="280" depart="14.0" from="1529#0" to="-889#1" />
    <trip id="281" depart="14.05" from="-917" to="-161#0" />
    <trip id="282" depart="14.1" from="2040#0" to="22#9" />
    <trip id="283" depart="14.15" from="-167#20" to="223#5" />
    <trip id="284" depart="14.2" from="-301#1" to="422#1" />
    <trip id="285" depart="14.25" from="143" to="167#2" />
    <trip id="286" depart="14.3" from="-1024#3" to="1156#1" />
    <trip id="287" depart="14.35" from="324#2" to="1546#1" />
    <trip id="288" depart="14.4" from="1642" to="989#4" />
    <trip id="289" depart="14.45" from="208#1" to="-102#2" />
    <trip id="290" depart="14.5" from="1483#1" to="-1918#2" />
    <trip id="291" depart="14.55" from="-200#0" to="841#7" />
    <trip id="292" depart="14.6" from="-1644" to="859#0" />
    <trip id="293" depart="14.65" from="-955#0" to="1564#0" />
    <trip id="294" depart="14.7" from="-1103#0" to="-134" />
    <trip id="295" depart="14.75" from="1555#0" to="308#0" />
    <trip id="296" depart="14.8" from="1252" to="1668" />
    <trip id="297" depart="14.85" from="1942" to="-1030#2" />
    <trip id="298" depart="14.9" from="553#0" to="1005#1" />
    <trip id="299" depart="14.95" from="164#1" to="1959#2" />
    <trip id="300" depart="15.0" from="223#0" to="-435#2" />
    <trip id="301" depart="15.05" from="-514#11" to="-2046#4" />
    <trip id="302" depart="15.1" from="22#1" to="-677#0" />
    <trip id="303" depart="15.15" from="1996#7" to="-619#7" />
    <trip id="304" depart="15.2" from="27#10" to="-161#0" />
    <trip id="305" depart="15.25" from="42" to="1890" />
    <trip id="306" depart="15.3" from="912#3" to="309#4" />
    <trip id="307" depart="15.35" from="918#0" to="-1014#1" />
    <trip id="308" depart="15.4" from="-167#13" to="167#8" />
    <trip id="309" depart="15.45" from="-459#5" to="-193#1" />
    <trip id="310" depart="15.5" from="1695" to="1537#2" />
    <trip id="311" depart="15.55" from="-27#12" to="-1165#3" />
    <trip id="312" depart="15.6" from="262" to="1146" />
    <trip id="313" depart="15.65" from="-223#4" to="-1104#0" />
    <trip id="314" depart="15.7" from="-1829" to="1024#4" />
    <trip id="315" depart="15.75" from="1801#1" to="1999#4" />
    <trip id="316" depart="15.8" from="993#2" to="-435#2" />
    <trip id="317" depart="15.85" from="1119#1" to="619#1" />
    <trip id="318" depart="15.9" from="1687" to="-1169#0" />
    <trip id="319" depart="15.95" from="-967#0" to="884#1" />
    <trip id="320" depart="16.0" from="8" to="324#1" />
    <trip id="321" depart="16.05" from="88#2" to="-90#3" />
    <trip id="322" depart="16.1" from="343" to="-937#1" />
    <trip id="323" depart="16.15" from="1700" to="-686#0" />
    <trip id="324" depart="16.2" from="160#0" to="-83#0" />
    <trip id="325" depart="16.25" from="331#1" to="520" />
    <trip id="326" depart="16.3" from="-997#2" to="1910" />
    <trip id="327" depart="16.35" from="-125" to="-122" />
    <trip id="328" depart="16.4" from="1711" to="257" />
    <trip id="329" depart="16.45" from="27#9" to="-716#1" />
    <trip id="330" depart="16.5" from="171#0" to="-194#1" />
    <trip id="331" depart="16.55" from="1484" to="989#4" />
    <trip id="332" depart="16.6" from="1493#2" to="1149" />
    <trip id="333" depart="16.65" from="1931#2" to="-1050#2" />
    <trip id="334" depart="16.7" from="1897#0" to="1721" />
    <trip id="335" depart="16.75" from="1841#0" to="2044#0" />
    <trip id="336" depart="16.8" from="-113#0" to="264#0" />
    <trip id="337" depart="16.85" from="-514#6" to="677#0" />
    <trip id="338" depart="16.9" from="42" to="-19#0" />
    <trip id="339" depart="16.95" from="1809" to="259" />
    <trip id="340" depart="17.0" from="1489#2" to="1539" />
    <trip id="341" depart="17.05" from="1030#2" to="-859#1" />
    <trip id="342" depart="17.1" from="-1752#0" to="-927#2" />
    <trip id="343" depart="17.15" from="384#1" to="-684#2" />
    <trip id="344" depart="17.2" from="932#2" to="1902#5" />
    <trip id="345" depart="17.25" from="488" to="-346#1" />
    <trip id="346" depart="17.3" from="433#4" to="90#4" />
    <trip id="347" depart="17.35" from="1124#1" to="434" />
    <trip id="348" depart="17.4" from="-351#1" to="1137#5" />
    <trip id="349" depart="17.45" from="1522#0" to="518#2" />
    <trip id="350" depart="17.5" from="-167#8" to="-716#2" />
    <trip id="351" depart="17.55" from="1869#0" to="1154#4" />
    <trip id="352" depart="17.6" from="-102#2" to="-1094#0" />
    <trip id="353" depart="17.65" from="1694" to="-813#0" />
    <trip id="354" depart="17.7" from="-920#0" to="-1528#4" />
    <trip id="355" depart="17.75" from="1526" to="616#3" />
    <trip id="356" depart="17.8" from="101#3" to="1696" />
    <trip id="357" depart="17.85" from="43#0" to="1554#1" />
    <trip id="358" depart="17.9" from="1042#7" to="1120" />
    <trip id="359" depart="17.95" from="1962" to="1712#1" />
    <trip id="360" depart="18.0" from="1842#0" to="930#0" />
    <trip id="361" depart="18.05" from="362" to="989#0" />
    <trip id="362" depart="18.1" from="-1070#1" to="2046#3" />
    <trip id="363" depart="18.15" from="1929#0" to="1522#0" />
    <trip id="364" depart="18.2" from="-194#0" to="856" />
    <trip id="365" depart="18.25" from="996#3" to="1024#3" />
    <trip id="366" depart="18.3" from="-1857#0" to="931#3" />
    <trip id="367" depart="18.35" from="386#0" to="1896" />
    <trip id="368" depart="18.4" from="946#8" to="-200#0" />
    <trip id="369" depart="18.45" from="-903#3" to="674#1" />
    <trip id="370" depart="18.5" from="343" to="686#1" />
    <trip id="371" depart="18.55" from="907" to="7#0" />
    <trip id="372" depart="18.6" from="-949#1" to="85" />
    <trip id="373" depart="18.65" from="-161#0" to="947#5" />
    <trip id="374" depart="18.7" from="-1545#0" to="114#1" />
    <trip id="375" depart="18.75" from="126#0" to="-155" />
    <trip id="376" depart="18.8" from="1623#1" to="934" />
    <trip id="377" depart="18.85" from="-1720#2" to="-452#1" />
    <trip id="378" depart="18.9" from="-1523#0" to="1752#2" />
    <trip id="379" depart="18.95" from="1107#0" to="1918#1" />
    <trip id="380" depart="19.0" from="1873" to="155" />
    <trip id="381" depart="19.05" from="2003#0" to="930#1" />
    <trip id="382" depart="19.1" from="19#1" to="124#1" />
    <trip id="383" depart="19.15" from="-194#1" to="-11#0" />
    <trip id="384" depart="19.2" from="95#1" to="-11#1" />
    <trip id="385" depart="19.25" from="-903#3" to="1720#1" />
    <trip id="386" depart="19.3" from="298#5" to="931#0" />
    <trip id="387" depart="19.35" from="914#1" to="1009" />
    <trip id="388" depart="19.4" from="380#2" to="1522#4" />
    <trip id="389" depart="19.45" from="1871#1" to="1944#2" />
    <trip id="390" depart="19.5" from="162#0" to="1009" />
    <trip id="391" depart="19.55" from="1623#2" to="324#2" />
    <trip id="392" depart="19.6" from="904#7" to="1999#6" />
    <trip id="393" depart="19.65" from="-1095#0" to="422#3" />
    <trip id="394" depart="19.7" from="223#1" to="1918#1" />
    <trip id="395" depart="19.75" from="841#6" to="-1102" />
    <trip id="396" depart="19.8" from="1999#4" to="-1041#1" />
    <trip id="397" depart="19.85" from="-102#1" to="167#22" />
    <trip id="398" depart="19.9" from="-83#6" to="-1545#0" />
    <trip id="399" depart="19.95" from="-355" to="1046#2" />
    <trip id="400" depart="20.0" from="215#0" to="-970#0" />
    <trip id="401" depart="20.05" from="25#0" to="-1527#3" />
    <trip id="402" depart="20.1" from="1015" to="332" />
    <trip id="403" depart="20.15" from="1048" to="459#2" />
    <trip id="404" depart="20.2" from="1867#0" to="-139#0" />
    <trip id="405" depart="20.25" from="-309#5" to="167#6" />
    <trip id="406" depart="20.3" from="164#2" to="28#0" />
    <trip id="407" depart="20.35" from="-1530#0" to="676#1" />
    <trip id="408" depart="20.4" from="1677" to="930#2" />
    <trip id="409" depart="20.45" from="903#1" to="27#7" />
    <trip id="410" depart="20.5" from="1703#1" to="2014#3" />
    <trip id="411" depart="20.55" from="-686#0" to="1487#0" />
    <trip id="412" depart="20.6" from="765#1" to="1551" />
    <trip id="413" depart="20.65" from="-509#1" to="2046#10" />
    <trip id="414" depart="20.7" from="2033#1" to="87#2" />
    <trip id="415" depart="20.75" from="410#1" to="1505#1" />
    <trip id="416" depart="20.8" from="-1876" to="1809" />
    <trip id="417" depart="20.85" from="639#1" to="2020#4" />
    <trip id="418" depart="20.9" from="1924" to="1475" />
    <trip id="419" depart="20.95" from="1902#4" to="-914#0" />
    <trip id="420" depart="21.0" from="1956" to="1900#3" />
    <trip id="421" depart="21.05" from="227#1" to="-1174#1" />
    <trip id="422" depart="21.1" from="1068#0" to="-894#1" />
    <trip id="423" depart="21.15" from="1913#1" to="-101#1" />
    <trip id="424" depart="21.2" from="-719#0" to="-45" />
    <trip id="425" depart="21.25" from="-1542" to="-1046#3" />
    <trip id="426" depart="21.3" from="-83#9" to="2041#1" />
    <trip id="427" depart="21.35" from="1957#1" to="1140#2" />
    <trip id="428" depart="21.4" from="1686" to="-1785#2" />
    <trip id="429" depart="21.45" from="2037" to="-136" />
    <trip id="430" depart="21.5" from="-914#2" to="-514#17" />
    <trip id="431" depart="21.55" from="949#2" to="1808#2" />
    <trip id="432" depart="21.6" from="-1094#0" to="2040#5" />
    <trip id="433" depart="21.65" from="-435#2" to="760" />
    <trip id="434" depart="21.7" from="1999#7" to="-814#0" />
    <trip id="435" depart="21.75" from="-514#7" to="200#1" />
    <trip id="436" depart="21.8" from="996#0" to="167#18" />
    <trip id="437" depart="21.85" from="1823#0" to="-151#4" />
    <trip id="438" depart="21.9" from="485#1" to="-618#3" />
    <trip id="439" depart="21.95" from="1535" to="195" />
    <trip id="440" depart="22.0" from="-1545#1" to="320#1" />
    <trip id="441" depart="22.05" from="2036#3" to="904#6" />
    <trip id="442" depart="22.1" from="2045#1" to="-674#0" />
    <trip id="443" depart="22.15" from="1996#10" to="1752#2" />
    <trip id="444" depart="22.2" from="-1528#4" to="-961" />
    <trip id="445" depart="22.25" from="-19#0" to="-309#4" />
    <trip id="446" depart="22.3" from="-898#1" to="1002" />
    <trip id="447" depart="22.35" from="-1174#6" to="20#1" />
    <trip id="448" depart="22.4" from="-709" to="225" />
    <trip id="449" depart="22.45" from="841#0" to="1473#0" />
    <trip id="450" depart="22.5" from="1888" to="-904#8" />
    <trip id="451" depart="22.55" from="2007#3" to="-1522#2" />
    <trip id="452" depart="22.6" from="-505" to="2015#0" />
    <trip id="453" depart="22.65" from="1140#0" to="430#1" />
    <trip id="454" depart="22.7" from="1929#9" to="-83#8" />
    <trip id="455" depart="22.75" from="-680#2" to="-139#1" />
    <trip id="456" depart="22.8" from="1564#0" to="-1752#0" />
    <trip id="457" depart="22.85" from="1798#1" to="1169#1" />
    <trip id="458" depart="22.9" from="147" to="1165#3" />
    <trip id="459" depart="22.95" from="-946#4" to="1894" />
    <trip id="460" depart="23.0" from="-101#0" to="-1165#1" />
    <trip id="461" depart="23.05" from="1556#0" to="125" />
    <trip id="462" depart="23.1" from="167#16" to="405" />
    <trip id="463" depart="23.15" from="2020#4" to="-1522#2" />
    <trip id="464" depart="23.2" from="26#1" to="2017" />
    <trip id="465" depart="23.25" from="1068#3" to="616#2" />
    <trip id="466" depart="23.3" from="1902#3" to="258#3" />
    <trip id="467" depart="23.35" from="-884#0" to="996#4" />
    <trip id="468" depart="23.4" from="-258#2" to="1473#3" />
    <trip id="469" depart="23.45" from="-1752#2" to="1837#2" />
    <trip id="470" depart="23.5" from="989#0" to="1996#8" />
    <trip id="471" depart="23.55" from="-403" to="-865#2" />
    <trip id="472" depart="23.6" from="1710#1" to="1110#4" />
    <trip id="473" depart="23.65" from="-1030#2" to="-686#1" />
    <trip id="474" depart="23.7" from="1537#3" to="109" />
    <trip id="475" depart="23.75" from="-215#3" to="1079#4" />
    <trip id="476" depart="23.8" from="-1541" to="-119#0" />
    <trip id="477" depart="23.85" from="1158#2" to="-22#5" />
    <trip id="478" depart="23.9" from="1901#0" to="223#5" />
    <trip id="479" depart="23.95" from="-1539" to="2025" />
    <trip id="480" depart="24.0" from="-946#2" to="-914#3" />
    <trip id="481" depart="24.05" from="1005#0" to="2003#0" />
    <trip id="482" depart="24.1" from="286#1" to="675#0" />
    <trip id="483" depart="24.15" from="2019#1" to="1537#2" />
    <trip id="484" depart="24.2" from="2028" to="-509#0" />
    <trip id="485" depart="24.25" from="-147" to="-1846#0" />
    <trip id="486" depart="24.3" from="87#0" to="148" />