<routes>                                                  
    <vehicle arrivalPos="-1" depart="0" departLane="best" departPos="0" id="0" ><route edges="a131 a117 a209 "/></vehicle>
    <vehicle arrivalPos="-1" depart="0" departLane="best" departPos="0" id="1" ><route edges="b6 b100 b7 b3[1] b3[1]b "/></vehicle>
    <vehicle arrivalPos="-1" depart="0" departLane="best" departPos="0" id="2" ><route edges="b22[0] b22[1] b2[1][1][1] b2[1][1][1]b "/></vehicle>
    <vehicle arrivalPos="-1" depart="0" departLane="best" departPos="0" id="3" ><route edges="a78[0] a56a a56b a77bc a77cd a53cd a53[0] a53[1][0] a79 a68 a11 b38[0] b38[0]a b46 b49[0] b49[1] b55 b53 b53a "/></vehicle>
    <vehicle arrivalPos="-1" depart="0" departLane="best" departPos="0" id="4" ><route edges="b1[0] ba1[1] b1[1] b38[0] b38[0]a b46 b49[0] b49[1] b55 b53 b53a "/></vehicle>
    <vehicle arrivalPos="-1" depart="0" departLane="best" departPos="0" id="5" ><route edges="b52 b51 b56[0] b39[0] b39[1][0] b39[1][1][0] b39[1][1][1] b45 a67 a80 a127 a77[1][0] a77[1][1] "/></vehicle>
    <vehicle arrivalPos="-1" depart="0" departLane="best" departPos="0" id="6" ><route edges="a210 a43[0] a118 a65 a57[0] a57[1] a62 a159 a42 a39 a35 a38 a15 a14 "/></vehicle>
    <vehicle arrivalPos="-1" depart="0" departLane="best" departPos="0" id="7" ><route edges="b63[0] b63[1] b4[0] b4[1][1][0] b4[1][1][1] "/></vehicle>
    <vehicle arrivalPos="-1" depart="0" departLane="best" departPos="0" id="8" ><route edges="b3[0] b10 "/></vehicle>
    <vehicle arrivalPos="-1" depart="0" departLane="best" departPos="0" id="9" ><route edges="a203[0] b12 b56[0] b56[1][0] b56[1][1] b5[1][0]+66 b5[1][1][1] b16[0] b16[1] b18 b20+19b b2[1][1][1]b "/></vehicle>
    <vehicle arrivalPos="-1" depart="0" departLane="best" departPos="0" id="10" ><route edges="a195 a61 a58[0] a58[1] a66 a119 a116 a46 a201 a201c a204a[0] a204b[0] a204[1][0] a204[1][1] "/></vehicle>
    <vehicle arrivalPos="-1" depart="0" departLane="best" departPos="0" id="11" ><route edges="a8 a9 a211 a45 a206 a32 a40 a41 a160 a61 a58[0] a58[1] a66 a117 a209 "/></vehicle>
    <vehicle arrivalPos="-1" depart="1" departLane="best" departPos="0" id="12" ><route edges="b1[0] b25 b23 b17[0] b17[1] b11[0] b11[1][1] b101 b35[0] b35[1][0] b35[1][1][0] b20000+35[1][1][1][0] b35[1][1][1][1] "/></vehicle>
    <vehicle arrivalPos="-1" depart="1" departLane="best" departPos="0" id="13" ><route edges="a210 a43[0] a43[1] a201 a201c a204a[0] a204b[0] a54 "/></vehicle>
    <vehicle arrivalPos="-1" depart="2" departLane="best" departPos="0" id="14" ><route edges="a78[0] a56a a56b a77bc a77cd a53cd a53[0] a53[1][0] a79 a68 a11 b38[0] b38[0]a b46 b49[0] b49[1] b55 b53 b53a "/></vehicle>
    <vehicle arrivalPos="-1" depart="2" departLane="best" departPos="0" id="15" ><route edges="b63[0] b63[1] b4[0] b4[1][1][0] b4[1][1][1] "/></vehicle>
    <vehicle arrivalPos="-1" depart="2" departLane="best" departPos="0" id="16" ><route edges="a203[0] b12 b56[0] b56[1][0] b56[1][1] b5[1][0]+66 b5[1][1][1] b8 b3[1] b3[1]b "/></vehicle>
    <vehicle arrivalPos="-1" depart="3" departLane="best" departPos="0" id="17" ><route edges="b1[0] ba1[1] b1[1] a72[0] a72[1] a69 a161 a122 a1b a1 a204a[0] a204b[0] a204[1][0] a204[1][1] "/></vehicle>
    <vehicle arrivalPos="-1" depart="3" departLane="best" departPos="0" id="18" ><route edges="a210 a43[0] a118 a65 a57[0] a57[1] a62 a159 a42 a39 a35 a38 a15 a14  "/></vehicle>
    <vehicle arrivalPos="-1" depart="4" departLane="best" departPos="0" id="19" ><route edges="b1[0] b25 b23 b17[0] b17[1] b11[0] b11[1][1] b70 "/></vehicle>
    <vehicle arrivalPos="-1" depart="4" departLane="best" departPos="0" id="20" ><route edges="b52 b51 b56[0] b39[0] b39[1][0] b39[1][1][0] b39[1][1][1] b45 a67 a80 a127 a77[1][0] a77ab a77bc a21a a21b a103 a14  "/></vehicle> 
    <vehicle arrivalPos="-1" depart="4" departLane="best" departPos="0" id="21" ><route edges="b63[0] b63[1] b4[0] b4[1][1][0] b4[1][1][1] "/></vehicle>
    <vehicle arrivalPos="-1" depart="4" departLane="best" departPos="0" id="22" ><route edges="b3[0] b10 "/></vehicle>
    <vehicle arrivalPos="-1" depart="4" departLane="best" departPos="0" id="23" ><route edges="a203[0] a203[1] a203[1]b a202 a34 a113 a209 "/></vehicle>
    <vehicle arrivalPos="-1" depart="5" departLane="best" departPos="0" id="24" ><route edges="a78[0] a56a a56b a77bc a77cd a53cd a53[0] a53[1][0] a79 a68 a11 b2[0] b2[1][0] b2[1][1][0] b2[1][1][1] b2[1][1][1]b "/></vehicle>
    <vehicle arrivalPos="-1" depart="5" departLane="best" departPos="0" id="25" ><route edges="a210 a43[0] a43[1] a201 a201c a204a[0] a124 b12 b56[0] b56[1][0] b56[1][1] b5[1][0]+66 b5[1][1][1] b8 b10 "/></vehicle>
    <vehicle arrivalPos="-1" depart="6" departLane="best" departPos="0" id="26" ><route edges="b6 b100 b7 b9 b16[0] b30 b31 b5[1][1][1] b8 b10 "/></vehicle>
    <vehicle arrivalPos="-1" depart="6" departLane="best" departPos="0" id="27" ><route edges="a210 a43[0] a43[1] a201 a201c a204a[0] a204b[0] a204[1][0] a204[1][1] "/></vehicle>
    <vehicle arrivalPos="-1" depart="6" departLane="best" departPos="0" id="28" ><route edges="b13[0] b14 b17[0] b17[1] b8 b4[1][1][1] "/></vehicle>
    <vehicle arrivalPos="-1" depart="7" departLane="best" departPos="0" id="29" ><route edges="a78[0] a56a a56b a77bc a77cd a53cd a53[0] a53[1][0] a79 a68 a11 b38[0] b38[0]a b46 b49[0] b49[1] b55 b53 b53a "/></vehicle>
    <vehicle arrivalPos="-1" depart="7" departLane="best" departPos="0" id="30" ><route edges="b1[0] b25 b23 b17[0] b30 b31 b11[1][1] b101 b35[0] b35[1][0] b35[1][1][0] b20000+35[1][1][1][0] b35[1][1][1][1] "/></vehicle>
    <vehicle arrivalPos="-1" depart="7" departLane="best" departPos="0" id="31" ><route edges="a203[0] a203[1] a203[1]b a202 a34 a113 a209 "/></vehicle>
    <vehicle arrivalPos="-1" depart="7" departLane="best" departPos="0" id="32" ><route edges=" a13 a104 a24 a22 a59 a53cd a53[0] a78[1][1] a189[0] a189[1][0]+20000 a189[1][1] a188 a87[0] a20001+87[1][0] a87[1][1] am90 a171 a161 a122 a1b a1 a204a[0] a204b[0] a54 "/></vehicle>
    <vehicle arrivalPos="-1" depart="8" departLane="best" departPos="0" id="33" ><route edges="a210 a43[0] a43[1] a201 a201c a204a[0] a124 b12 b56[0] b39[0] b39[1][0] b39[1][1][0] b39[1][1][1] b45 a67 a80 a127 a77[1][0] a77[1][1] "/></vehicle>
    <vehicle arrivalPos="-1" depart="8" departLane="best" departPos="0" id="34" ><route edges="b13[0] b14 b17[0] b29[0] b29[1] b4[1][1][0] b4[1][1][1] "/></vehicle>
    <vehicle arrivalPos="-1" depart="9" departLane="best" departPos="0" id="35" ><route edges="b1[0] ba1[1] b1[1] a72[0] a72[1] a69 a161 a122 a1b a1 a204a[0] a124 b12 b56[0] b56[1][0] b56[1][1] b70 "/></vehicle>
    <vehicle arrivalPos="-1" depart="9" departLane="best" departPos="0" id="36" ><route edges="b52 b51 b56[0] b56[1][0] b56[1][1] b5[1][0]+66 b5[1][1][1] b8 b3[1] b3[1]b "/></vehicle>
    <vehicle arrivalPos="-1" depart="9" departLane="best" departPos="0" id="37" ><route edges="b3[0] b3[1] b3[1]b "/></vehicle>
    <vehicle arrivalPos="-1" depart="9" departLane="best" departPos="0" id="38" ><route edges="a203[0] a203[1] a203[1]b a202 a34 a113 a209 "/></vehicle>
    <vehicle arrivalPos="-1" depart="10" departLane="best" departPos="0" id="39" ><route edges="a78[0] a56a a56b a77bc a77cd a53cd a53[0] a53[1][0] a79 a68 a11 b2[0] b2[1][0] b2[1][1][0] b2[1][1][1] b2[1][1][1]b "/></vehicle>
    <vehicle arrivalPos="-1" depart="10" departLane="best" departPos="0" id="40" ><route edges="b1[0] ba1[1] b1[1] a72[0] a72[1] a69 a161 a122 a1b a1 a204a[0] a204b[0] a204[1][0] a204[1][1] "/></vehicle>
    <vehicle arrivalPos="-1" depart="10" departLane="best" departPos="0" id="41" ><route edges="a210 a43[0] a43[1] a201 a201c a204a[0] a124 b12 b56[0] b39[0] b39[1][0] b39[1][1][0] b39[1][1][1] b45 a67 a80 a127 a77[1][0] a77[1][1] "/></vehicle>
    <vehicle arrivalPos="-1" depart="10" departLane="best" departPos="0" id="42" ><route edges="b63[0] b63[1] b4[0] b28 b28a b16[1] b18 b20+19a ba1[1] b1[1] a72[0] a72[1] a69 a161 a122 a1b a1 a204a[0] a204b[0] a204[1][0] a204[1][1] "/></vehicle>
    <vehicle arrivalPos="-1" depart="11" departLane="best" departPos="0" id="43" ><route edges="a203[0] a203[1] a203[1]b a202 a34 a113 a209 "/></vehicle>
    <vehicle arrivalPos="-1" depart="12" departLane="best" departPos="0" id="44" ><route edges="b6 b100 b7 b3[1] b3[1]b "/></vehicle>
    <vehicle arrivalPos="-1" depart="12" departLane="best" departPos="0" id="45" ><route edges="b1[0] ba1[1] b1[1] a72[0] a72[1] a69 a161 a122 a3 a2 a202 a34 a113 a209 "/></vehicle>
    <vehicle arrivalPos="-1" depart="12" departLane="best" departPos="0" id="46" ><route edges="a210 a43[0] a43[1] a201 a201c a204a[0] a124 b12 b56[0] b56[1][0] b56[1][1] b70 "/></vehicle>
    <vehicle arrivalPos="-1" depart="12" departLane="best" departPos="0" id="47" ><route edges="b13[0] b14 b18 b20+19a ba1[1] b1[1] a72[0] a72[1] a69 a161 a122 a3 a2 a202 a34 a113 a209 "/></vehicle>
    <vehicle arrivalPos="-1" depart="13" departLane="best" departPos="0" id="48" ><route edges="a210 a43[0] a43[1] a201 a201c a204a[0] a124 b12 b56[0] b56[1][0] b56[1][1] b5[1][0]+66 b5[1][1][1] b8 b10 "/></vehicle>
    <vehicle arrivalPos="-1" depart="14" departLane="best" departPos="0" id="49" ><route edges="b52 b51 b56[0] b56[1][0] b56[1][1] b5[1][0]+66 b5[1][1][1] b8 b3[1] b3[1]b "/></vehicle>
    <vehicle arrivalPos="-1" depart="14" departLane="best" departPos="0" id="50" ><route edges="b3[0] b3[1] b3[1]b "/></vehicle>
    <vehicle arrivalPos="-1" depart="14" departLane="best" departPos="0" id="51" ><route edges="a203[0] a203[1] a203[1]b a202 a34 a113 a118 a65 a57[0] a57[1] a62 a159 a42 a39 a35 a38 a15 a14  "/></vehicle>
    <vehicle arrivalPos="-1" depart="14" departLane="best" departPos="0" id="52" ><route edges=" a13 a104 a24 a22 a59 a53cd a53[0] a53[1][0] a79 a74 a72[1] a69 a161 a122 a1b a1 a204a[0] a124 b12 b53 b53a "/></vehicle>
    <vehicle arrivalPos="-1" depart="15" departLane="best" departPos="0" id="53" ><route edges="a78[0] a56a am1 a21b a103 a16 a37 a36 a40 a41 a160 a61 a58[0] a58[1] a200 a60 "/></vehicle>
    <vehicle arrivalPos="-1" depart="15" departLane="best" departPos="0" id="54" ><route edges="b1[0] b25 b23 b17[0] b17[1] b11[0] b11[1][1] b101 b35[0] b35[1][0] b35[1][1][0] b20000+35[1][1][1][0] b35[1][1][1][1] "/></vehicle>
    <vehicle arrivalPos="-1" depart="15" departLane="best" departPos="0" id="55" ><route edges="a210 a43[0] a43[1] a201 a201c a204a[0] a124 b12 b56[0] b56[1][0] b56[1][1] b70 "/></vehicle>
    <vehicle arrivalPos="-1" depart="15" departLane="best" departPos="0" id="56" ><route edges="b63[0] b63[1] b4[0] b4[1][1][0] b4[1][1][1] "/></vehicle>
    <vehicle arrivalPos="-1" depart="16" departLane="best" departPos="0" id="57" ><route edges="a203[0] a203[1] a203[1]b a202 a34 a113 a209 "/></vehicle>
    <vehicle arrivalPos="-1" depart="17" departLane="best" departPos="0" id="58" ><route edges="b1[0] b21 "/></vehicle>
    <vehicle arrivalPos="-1" depart="17" departLane="best" departPos="0" id="59" ><route edges="a210 a43[0] a43[1] a201 a201c a204a[0] a204b[0] a204[1][0] a204[1][1] "/></vehicle>
    <vehicle arrivalPos="-1" depart="17" departLane="best" departPos="0" id="60" ><route edges="b13[0] b14 b17[0] b30 b31 b11[1][1] b70 "/></vehicle>
    <vehicle arrivalPos="-1" depart="17" departLane="best" departPos="0" id="61" ><route edges=" a13 a104 a24 a22 a59 a53cd a53[0] a78[1][1] a189[0] a189[1][0]+20000 a189[1][1] a188 a87[0] a20001+87[1][0] a87[1][1] am90 a171 a161 a122 a1b a1 a204a[0] a204b[0] a204[1][0] a204[1][1] "/></vehicle>
    <vehicle arrivalPos="-1" depart="18" departLane="best" departPos="0" id="62" ><route edges="b6 b100 b7 b4[1][1][1] "/></vehicle>
    <vehicle arrivalPos="-1" depart="18" departLane="best" departPos="0" id="63" ><route edges="a78[0] a56a a56b a77bc a77cd a53cd a53[0] a53[1][0] a79 a68 a11 b38[0] b38[0]a b38[1][0] b38[1][1] b38[1][1]a b56[1][0] b34[0] b34[1][0] b26 b26.-170 b18 b20+19b b2[1][1][1]b "/></vehicle>
    <vehicle arrivalPos="-1" depart="18" departLane="best" departPos="0" id="64" ><route edges="a210 a43[0] a43[1] a201 a201c a204a[0] a204b[0] a204[1][0] a204[1][1] "/></vehicle>
    <vehicle arrivalPos="-1" depart="18" departLane="best" departPos="0" id="65" ><route edges="a203[0] b12 b56[0] b56[1][0] b56[1][1] b5[1][0]+66 b5[1][1][1] b8 b3[1] b3[1]b "/></vehicle>
    <vehicle arrivalPos="-1" depart="19" departLane="best" departPos="0" id="66" ><route edges="b52 b51 b56[0] b56[1][0] b34[0] b34[1][0] b34[1][1] b2[1][0] b2[1][1][0] b2[1][1][1] b2[1][1][1]b "/></vehicle>
    <vehicle arrivalPos="-1" depart="19" departLane="best" departPos="0" id="67" ><route edges="b63[0] b63[1] b4[0] b4[1][1][0] b4[1][1][1] "/></vehicle>
    <vehicle arrivalPos="-1" depart="19" departLane="best" departPos="0" id="68" ><route edges="b3[0] b3[1] b3[1]b "/></vehicle>
    <vehicle arrivalPos="-1" depart="20" departLane="best" departPos="0" id="69" ><route edges="a78[0] a56a am1 a21b a103 a16 a37 a36 a40 a41 a160 a61 a58[0] a58[1] a200 a60 "/></vehicle>
    <vehicle arrivalPos="-1" depart="20" departLane="best" departPos="0" id="70" ><route edges="b1[0] ba1[1] b1[1] b38[0] b38[0]a b46 b49[0] b49[1] b55 b53 b53a "/></vehicle>
    <vehicle arrivalPos="-1" depart="20" departLane="best" departPos="0" id="71" ><route edges="a210 a43[0] a118 a65 a57[0] a57[1] a62 a159 a42 a39 a35 a38 a15 a14  "/></vehicle>
    <vehicle arrivalPos="-1" depart="21" departLane="best" departPos="0" id="72" ><route edges="b63[0] b63[1] b4[0] b4[1][1][0] b4[1][1][1] "/></vehicle>
    <vehicle arrivalPos="-1" depart="21" departLane="best" departPos="0" id="73" ><route edges="a203[0] b12 b56[0] b56[1][0] b56[1][1] b5[1][0]+66 b5[1][1][1] b16[0] b29[0] "/></vehicle>
    <vehicle arrivalPos="-1" depart="21" departLane="best" departPos="0" id="74" ><route edges=" a13 a104 a24 a22 a59 a53cd a53[0] a53[1][0] a79 a68 a11 b38[0] b38[0]a b46 b49[0] b49[1] b55 b53 b53a "/></vehicle>
    <vehicle arrivalPos="-1" depart="23" departLane="best" departPos="0" id="75" ><route edges="a78[0] a56a a56b a77bc a77cd a53cd a53[0] a53[1][0] a79 a68 a11 b38[0] b38[0]a b38[1][0] b38[1][1] b38[1][1]a b56[1][0] b56[1][1] b5[1][0]+66 b5[1][1][1] b8 b4[1][1][1] "/></vehicle>
    <vehicle arrivalPos="-1" depart="23" departLane="best" departPos="0" id="76" ><route edges="b1[0] ba1[1] b1[1] a72[0] a72[1] a69 a161 a122 a1b a1 a204a[0] a204b[0] a204[1][0] a204[1][1] "/></vehicle>
    <vehicle arrivalPos="-1" depart="23" departLane="best" departPos="0" id="77" ><route edges="b63[0] b63[1] b4[0] b4[1][1][0] b4[1][1][1] "/></vehicle>
    <vehicle arrivalPos="-1" depart="23" departLane="best" departPos="0" id="78" ><route edges="a203[0] a203[1] a203[1]b a202 a34 a113 a209 "/></vehicle>
    <vehicle arrivalPos="-1" depart="24" departLane="best" departPos="0" id="79" ><route edges="b6 b100 b7 b4[1][1][1] "/></vehicle>
    <vehicle arrivalPos="-1" depart="24" departLane="best" departPos="0" id="80" ><route edges="b52 b51 b56[0] b56[1][0] b56[1][1] b5[1][0]+66 b5[1][1][1] b8 b3[1] b3[1]b "/></vehicle>
    <vehicle arrivalPos="-1" depart="24" departLane="best" departPos="0" id="81" ><route edges="a210 a43[0] a118 a65 a57[0] a57[1] a62 a159 a42 a39 a35 a38 a15 a14  "/></vehicle>   
    <vehicle arrivalPos="-1" depart="24" departLane="best" departPos="0" id="82" ><route edges="b3[0] b3[1] b3[1]b "/></vehicle>
    <vehicle arrivalPos="-1" depart="24" departLane="best" departPos="0" id="83" ><route edges=" a9 a211 a45 a206 a32 a40 a41 a160 a61 a58[0] a58[1] a66 a117 a209 "/></vehicle>
    <vehicle arrivalPos="-1" depart="25" departLane="best" departPos="0" id="84" ><route edges="b1[0] ba1[1] b1[1] a72[0] a72[1] a69 a161 a122 a1b a1 a204a[0] a204b[0] a204[1][0] a204[1][1] "/></vehicle>
    <vehicle arrivalPos="-1" depart="25" departLane="best" departPos="0" id="85" ><route edges="a210 a43[0] a43[1] a201 a201c a204a[0] a124 b12 b53 b53a "/></vehicle>
    <vehicle arrivalPos="-1" depart="25" departLane="best" departPos="0" id="86" ><route edges="b63[0] b63[1] b4[0] b4[1][1][0] b4[1][1][1] "/></vehicle>
    <vehicle arrivalPos="-1" depart="25" departLane="best" departPos="0" id="87" ><route edges="a203[0] a203[1] a203[1]b a202 a34 a113 a209 "/></vehicle>
    <vehicle arrivalPos="-1" depart="26" departLane="best" departPos="0" id="88" ><route edges="a78[0] a56a a56b a77bc a77cd a53cd a53[0] a78[1][1] a189[0] a189[1][0]+20000 a189[1][1] a188 a87[0] a20001+87[1][0] a87[1][1] am90 a89[0] a20002+89[1][0] a89[1][1] a91 a186 a109[0] a109[1][0]+20003 a109[1][1] a116 a46 a201 a201c a204a[0] a204b[0] a54 "/></vehicle>
    <vehicle arrivalPos="-1" depart="27" departLane="best" departPos="0" id="89" ><route edges="a210 a43[0] a43[1] a134 a134b "/></vehicle>
    <vehicle arrivalPos="-1" depart="27" departLane="best" departPos="0" id="90" ><route edges="b13[0] b14 b17[0] b17[1] b8 b4[1][1][1] "/></vehicle>
    <vehicle arrivalPos="-1" depart="28" departLane="best" departPos="0" id="91" ><route edges="a78[0] a56a a56b a77bc a77cd a53cd a53[0] a53[1][0] a79 a68 a11 b38[0] b38[0]a b38[1][0] b38[1][1] b38[1][1]a b56[1][0] b56[1][1] b5[1][0]+66 b5[1][1][1] b8 b4[1][1][1] "/></vehicle>
    <vehicle arrivalPos="-1" depart="28" departLane="best" departPos="0" id="92" ><route edges="b1[0] ba1[1] b1[1] a72[0] a72[1] a69 a161 a122 a1b a1 a204a[0] a204b[0] a204[1][0] a204[1][1] "/></vehicle>
    <vehicle arrivalPos="-1" depart="28" departLane="best" departPos="0" id="93" ><route edges="a203[0] b12 b56[0] b39[0] b39[1][0] b39[1][1][0] b39[1][1][1] b45 a67 a80 a127 a77[1][0] a77ab a77bc a21a a21b a103 a14  "/></vehicle>  
    <vehicle arrivalPos="-1" depart="29" departLane="best" departPos="0" id="94" ><route edges="b52 b51 b56[0] b56[1][0] b56[1][1] b5[1][0]+66 b5[1][1][1] b8 b10 "/></vehicle>
    <vehicle arrivalPos="-1" depart="29" departLane="best" departPos="0" id="95" ><route edges="a210 a43[0] a43[1] a201 a201c a204a[0] a124 b12 b56[0] b39[0] b39[1][0] b39[1][1][0] b39[1][1][1] b45 a67 a80 a127 a77[1][0] a77[1][1] "/></vehicle>
    <vehicle arrivalPos="-1" depart="29" departLane="best" departPos="0" id="96" ><route edges="b3[0] b9 b11[0] b11[1][1] b70 "/></vehicle>
    <vehicle arrivalPos="-1" depart="30" departLane="best" departPos="0" id="97" ><route edges="b6 b100 b7 b9 b11[0] b11[1][1] b101 b34[0] b34[1][0] b36 b46 b49[0] b49[1] b55 b53 b53a "/></vehicle>
    <vehicle arrivalPos="-1" depart="30" departLane="best" departPos="0" id="98" ><route edges="a210 a43[0] a43[1] a201 a201c a204a[0] a204b[0] a204[1][0] a204[1][1] "/></vehicle>
    <vehicle arrivalPos="-1" depart="30" departLane="best" departPos="0" id="99" ><route edges="b63[0] b63[1] b4[0] b4[1][1][0] b4[1][1][1] "/></vehicle>
    <vehicle arrivalPos="-1" depart="30" departLane="best" departPos="0" id="100" ><route edges="a203[0] b12 b56[0] b56[1][0] b56[1][1] b70 "/></vehicle>
    <vehicle arrivalPos="-1" depart="32" departLane="best" departPos="0" id="101" ><route edges="b1[0] b25 b23 b27 b36 b46 b49[0] b49[1] b55 b53 b53a "/></vehicle>
    <vehicle arrivalPos="-1" depart="32" departLane="best" departPos="0" id="102" ><route edges="a210 a43[0] a43[1] a201 a201c a204a[0] a204b[0] a204[1][0] a204[1][1] "/></vehicle>
    <vehicle arrivalPos="-1" depart="32" departLane="best" departPos="0" id="103" ><route edges="b63[0] b63[1] b4[0] b4[1][1][0] b4[1][1][1] "/></vehicle>
    <vehicle arrivalPos="-1" depart="33" departLane="best" departPos="0" id="104" ><route edges="a203[0] b12 b56[0] b56[1][0] b56[1][1] b70 "/></vehicle>
    <vehicle arrivalPos="-1" depart="34" departLane="best" departPos="0" id="105" ><route edges="b1[0] ba1[1] b1[1] a72[0] a72[1] a69 a161 a122 a1b a1 a204a[0] a124 b12 b56[0] b39[0] b39[1][0] b39[1][1][0] b39[1][1][1] b45 b2[0] b2[1][0] b2[1][1][0] b2[1][1][1] b2[1][1][1]b "/></vehicle>
    <vehicle arrivalPos="-1" depart="34" departLane="best" departPos="0" id="106" ><route edges="b52 b51 b56[0] b56[1][0] b56[1][1] b5[1][0]+66 b5[1][1][1] b8 b3[1] b3[1]b "/></vehicle>
    <vehicle arrivalPos="-1" depart="34" departLane="best" departPos="0" id="107" ><route edges="a210 a43[0] a43[1] a201 a201c a204a[0] a204b[0] a204[1][0] a204[1][1] "/></vehicle>
    <vehicle arrivalPos="-1" depart="34" departLane="best" departPos="0" id="108" ><route edges="b63[0] b63[1] b4[0] b4[1][1][0] b4[1][1][1] "/></vehicle>
    <vehicle arrivalPos="-1" depart="34" departLane="best" departPos="0" id="109" ><route edges="b3[0] b10 "/></vehicle>
    <vehicle arrivalPos="-1" depart="34" departLane="best" departPos="0" id="110" ><route edges="a195 a61 a58[0] a58[1] a66 a119 a116 a46 a201 a201c a204a[0] a204b[0] a204[1][0] a204[1][1] "/></vehicle>
    <vehicle arrivalPos="-1" depart="35" departLane="best" departPos="0" id="111" ><route edges="b1[0] ba1[1] b1[1] b38[0] b38[0]a b46 b49[0] b49[1] b55 b53 b53a "/></vehicle>
    <vehicle arrivalPos="-1" depart="35" departLane="best" departPos="0" id="112" ><route edges="a203[0] a203[1] a203[1]b a202 a34 a113 a209 "/></vehicle>
    <vehicle arrivalPos="-1" depart="35" departLane="best" departPos="0" id="113" ><route edges=" a13 a104 a24 a22 a59 a53cd a53[0] a53[1][0] a79 a68 a11 b38[0] b38[0]a b38[1][0] b38[1][1] b38[1][1]a b56[1][0] b56[1][1] b70 "/></vehicle>
    <vehicle arrivalPos="-1" depart="36" departLane="best" departPos="0" id="114" ><route edges="b6 b100 b7 b4[1][1][1] "/></vehicle>
    <vehicle arrivalPos="-1" depart="36" departLane="best" departPos="0" id="115" ><route edges="b22[0] b22[1] ba1[1] b1[1] a72[0] a72[1] a69 a161 a122 a3 a2 a202 a34 a113 a209 "/></vehicle>
    <vehicle arrivalPos="-1" depart="36" departLane="best" departPos="0" id="116" ><route edges="a78[0] a56a a56b a77bc a77cd a53cd a53[0] a53[1][0] a79 a68 a11 b38[0] b38[0]a b46 b49[0] b49[1] b55 b53 b53a "/></vehicle>
    <vehicle arrivalPos="-1" depart="36" departLane="best" departPos="0" id="117" ><route edges="a210 a43[0] a43[1] a134 a134b "/></vehicle>
    <vehicle arrivalPos="-1" depart="36" departLane="best" departPos="0" id="118" ><route edges="b63[0] b63[1] b4[0] b4[1][1][0] b4[1][1][1] "/></vehicle>
    <vehicle arrivalPos="-1" depart="37" departLane="best" departPos="0" id="119" ><route edges="b1[0] ba1[1] b1[1] a72[0] a72[1] a69 a161 a122 a1b a1 a204a[0] a204b[0] a204[1][0] a204[1][1] "/></vehicle>
    <vehicle arrivalPos="-1" depart="37" departLane="best" departPos="0" id="120" ><route edges="b65 b101 b35[0] b35[1][0] b35[1][1][0] b20000+35[1][1][1][0] b35[1][1][1][1] "/></vehicle>
    <vehicle arrivalPos="-1" depart="37" departLane="best" departPos="0" id="121" ><route edges="a210 a43[0] a43[1] a201 a201c a204a[0] a204b[0] a204[1][0] a204[1][1] "/></vehicle>
    <vehicle arrivalPos="-1" depart="37" departLane="best" departPos="0" id="122" ><route edges="a203[0] b12 b56[0] b39[0] b39[1][0] b39[1][1][0] b39[1][1][1] b45 b2[0] b2[1][0] b2[1][1][0] b2[1][1][1] b2[1][1][1]b "/></vehicle>
    <vehicle arrivalPos="-1" depart="38" departLane="best" departPos="0" id="123" ><route edges="b52 b51 b50[0] b97 b39[1][0] b39[1][1][0] b39[1][1][1] b45 b2[0] b2[1][0] b2[1][1][0] b2[1][1][1] b2[1][1][1]b "/></vehicle>
    <vehicle arrivalPos="-1" depart="38" departLane="best" departPos="0" id="124" ><route edges="b63[0] b63[1] b4[0] b4[1][1][0] b4[1][1][1] "/></vehicle>
    <vehicle arrivalPos="-1" depart="38" departLane="best" departPos="0" id="125" ><route edges="b3[0] b3[1] b3[1]b "/></vehicle>
    <vehicle arrivalPos="-1" depart="39" departLane="best" departPos="0" id="126" ><route edges="a78[0] a56a a56b a77bc a77cd a53cd a53[0] a53[1][0] a79 a68 a11 b2[0] b2[1][0] b2[1][1][0] b2[1][1][1] b2[1][1][1]b "/></vehicle>
    <vehicle arrivalPos="-1" depart="39" departLane="best" departPos="0" id="127" ><route edges="a210 a43[0] a43[1] a134 a134b "/></vehicle>
    <vehicle arrivalPos="-1" depart="39" departLane="best" departPos="0" id="128" ><route edges=" a13 a104 a24 a22 a59 a53cd a53[0] a53[1][0] a79 a68 a11 b38[0] b38[0]a b46 b49[0] b49[1] b55 b53 b53a "/></vehicle>
    <vehicle arrivalPos="-1" depart="40" departLane="best" departPos="0" id="129" ><route edges="b1[0] ba1[1] b1[1] b38[0] b38[0]a b46 b49[0] b49[1] b55 b53 b53a "/></vehicle>
    <vehicle arrivalPos="-1" depart="40" departLane="best" departPos="0" id="130" ><route edges="b63[0] b63[1] b4[0] b4[1][1][0] b4[1][1][1] "/></vehicle>
    <vehicle arrivalPos="-1" depart="40" departLane="best" departPos="0" id="131" ><route edges="a203[0] b12 b56[0] b56[1][0] b56[1][1] b5[1][0]+66 b5[1][1][1] b16[0] b16[1] b18 b20+19b b2[1][1][1]b "/></vehicle>
    <vehicle arrivalPos="-1" depart="41" departLane="best" departPos="0" id="132" ><route edges="a210 a43[0] a43[1] a201 a201c a204a[0] a124 b12 b56[0] b56[1][0] b56[1][1] b5[1][0]+66 b5[1][1][1] b16[0] b29[0] "/></vehicle>  
    <vehicle arrivalPos="-1" depart="42" departLane="best" departPos="0" id="133" ><route edges="a131 a119 a116 a46 a201 a201c a204a[0] a204b[0] a204[1][0] a204[1][1] "/></vehicle>
    <vehicle arrivalPos="-1" depart="42" departLane="best" departPos="0" id="134" ><route edges="b6 b100 b7 b4[1][1][1] "/></vehicle>
    <vehicle arrivalPos="-1" depart="42" departLane="best" departPos="0" id="135" ><route edges="a210 a43[0] a43[1] a134 a134b "/></vehicle>
    <vehicle arrivalPos="-1" depart="42" departLane="best" departPos="0" id="136" ><route edges="a203[0] a203[1] a203[1]b a202 a34 a113 a209 "/></vehicle>
    <vehicle arrivalPos="-1" depart="42" departLane="best" departPos="0" id="137" ><route edges=" a13 a104 a24 a22 a59 a53cd a53[0] a53[1][0] a53[1][1][0] a77[1][0] a77[1][1] "/></vehicle>
    <vehicle arrivalPos="-1" depart="43" departLane="best" departPos="0" id="138" ><route edges="b1[0] ba1[1] b1[1] a72[0] a72[1] a69 a161 a122 a3 a2 a202 a34 a134 a134b "/></vehicle>
    <vehicle arrivalPos="-1" depart="43" departLane="best" departPos="0" id="139" ><route edges="b52 b51 b56[0] b56[1][0] b56[1][1] b5[1][0]+66 b5[1][1][1] b8 b3[1] b3[1]b "/></vehicle>
    <vehicle arrivalPos="-1" depart="43" departLane="best" departPos="0" id="140" ><route edges="b65 b5[1][0]+66 b5[1][1][1] b16[0] b16[1] b18 b20+19b b2[1][1][1]b "/></vehicle>
    <vehicle arrivalPos="-1" depart="43" departLane="best" departPos="0" id="141" ><route edges="b63[0] b63[1] b4[0] b4[1][1][0] b10 "/></vehicle>
    <vehicle arrivalPos="-1" depart="43" departLane="best" departPos="0" id="142" ><route edges="b3[0] b3[1] b3[1]b "/></vehicle>
    <vehicle arrivalPos="-1" depart="44" departLane="best" departPos="0" id="143" ><route edges="a78[0] a56a a56b a77bc a77cd a53cd a53[0] a53[1][0] a79 a68 a11 b2[0] b2[1][0] b24 b23 b15 "/></vehicle>
    <vehicle arrivalPos="-1" depart="44" departLane="best" departPos="0" id="144" ><route edges="a210 a43[0] a43[1] a201 a201c a204a[0] a204b[0] a54 "/></vehicle>
    <vehicle arrivalPos="-1" depart="44" departLane="best" departPos="0" id="145" ><route edges="a203[0] a203[1] a203[1]b a202 a34 a113 a209 "/></vehicle>
    <vehicle arrivalPos="-1" depart="45" departLane="best" departPos="0" id="146" ><route edges="b1[0] ba1[1] b1[1] b38[0] b38[0]a b46 b49[0] b49[1] b55 b53 b53a "/></vehicle>
    <vehicle arrivalPos="-1" depart="45" departLane="best" departPos="0" id="147" ><route edges="b63[0] b63[1] b4[0] b4[1][1][0] b4[1][1][1] "/></vehicle>
    <vehicle arrivalPos="-1" depart="46" departLane="best" departPos="0" id="148" ><route edges="b1[0] ba1[1] b1[1] b38[0] b38[0]a b46 b49[0] b49[1] b55 b53 b53a "/></vehicle>
    <vehicle arrivalPos="-1" depart="46" departLane="best" departPos="0" id="149" ><route edges="a210 a43[0] a43[1] a201 a201c a204a[0] a204b[0] a204[1][0] a204[1][1] "/></vehicle>
    <vehicle arrivalPos="-1" depart="47" departLane="best" departPos="0" id="150" ><route edges="b63[0] b63[1] b4[0] b4[1][1][0] b4[1][1][1] "/></vehicle>
    <vehicle arrivalPos="-1" depart="47" departLane="best" departPos="0" id="151" ><route edges="a203[0] a203[1] a203[1]b a202 a34 a113 a209 "/></vehicle>
    <vehicle arrivalPos="-1" depart="48" departLane="best" departPos="0" id="152" ><route edges="b6 b100 b7 b3[1] b3[1]b "/></vehicle>
    <vehicle arrivalPos="-1" depart="48" departLane="best" departPos="0" id="153" ><route edges="b52 b51 b56[0] b56[1][0] b56[1][1] b5[1][0]+66 b5[1][1][1] b8 b3[1] b3[1]b "/></vehicle>
    <vehicle arrivalPos="-1" depart="48" departLane="best" departPos="0" id="154" ><route edges="a210 a43[0] a43[1] a134 a134b "/></vehicle>
    <vehicle arrivalPos="-1" depart="48" departLane="best" departPos="0" id="155" ><route edges="b3[0] b3[1] b3[1]b "/></vehicle>
    <vehicle arrivalPos="-1" depart="49" departLane="best" departPos="0" id="156" ><route edges="a78[0] a56a a56b a77bc a77cd a53cd a53[0] a53[1][0] a79 a68 a11 b2[0] b2[1][0] b2[1][1][0] b2[1][1][1] b2[1][1][1]b "/></vehicle>
    <vehicle arrivalPos="-1" depart="49" departLane="best" departPos="0" id="157" ><route edges="a210 a43[0] a43[1] a201 a201c a204a[0] a124 b12 b56[0] b56[1][0] b56[1][1] b5[1][0]+66 b5[1][1][1] b8 b3[1] b3[1]b "/></vehicle>
    <vehicle arrivalPos="-1" depart="49" departLane="best" departPos="0" id="158" ><route edges="b13[0] b14 b18 b20+19a ba1[1] b1[1] a72[0] a72[1] a69 a161 a122 a3 a2 a202 a34 a134 a134b "/></vehicle>
    <vehicle arrivalPos="-1" depart="49" departLane="best" departPos="0" id="159" ><route edges="a203[0] a203[1] a203[1]b a202 a34 a113 a209 "/></vehicle>
    <vehicle arrivalPos="-1" depart="50" departLane="best" departPos="0" id="160" ><route edges="b1[0] ba1[1] b1[1] a67 a80 a127 a77[1][0] a77ab a77bc a21a a21b a103 a14  "/></vehicle>     
    <vehicle arrivalPos="-1" depart="51" departLane="best" departPos="0" id="161" ><route edges="b1[0] ba1[1] b1[1] a72[0] a72[1] a69 a161 a122 a1b a1 a204a[0] a204b[0] a204[1][0] a204[1][1] "/></vehicle>
    <vehicle arrivalPos="-1" depart="51" departLane="best" departPos="0" id="162" ><route edges="a210 a43[0] a43[1] a201 a201c a204a[0] a124 b12 b56[0] b56[1][0] b56[1][1] b5[1][0]+66 b5[1][1][1] b8 b3[1] b3[1]b "/></vehicle>