<?xml version="1.0" encoding="UTF-8"?>

<!-- generated on 02/22/17 20:17:53 by SUMO duarouter Version 0.24.0
<?xml version="1.0" encoding="UTF-8"?>

<configuration xmlns:xsi="http://www.w3.org/2001/XMLSchema-instance" xsi:noNamespaceSchemaLocation="http://sumo.dlr.de/xsd/duarouterConfiguration.xsd">

    <input>
        <net-file value="input_net.net.xml"/>
        <trip-files value="trips.trips.xml"/>
    </input>

    <output>
        <output-file value="routes.rou.xml"/>
    </output>

</configuration>
-->

<routes xmlns:xsi="http://www.w3.org/2001/XMLSchema-instance" xsi:noNamespaceSchemaLocation="http://sumo.dlr.de/xsd/routes_file.xsd">
    <vehicle id="0" depart="0.00">
        <route edges="1281#2 1181#0 1181#1 1181#2 1181#3 1181#4 1181#5 843 923#0 923#1 926#0 926#1 926#2 1222 1202#0 1202#1 60 61 746#0 746#1 1071 1248 741 1079 808 1076 1077 1070 180 38 1247 428"/>
    </vehicle>
    <vehicle id="1" depart="0.05">
        <route edges="1286 828 1280 1281#0 1281#1 1281#2 1181#0 1181#1 1181#2 1181#3 1181#4 1181#5 851 1198#0 1198#1 1141 1328 1046#0 1046#1 1046#2 747#0 747#1 349 356#0 356#1 356#2 955 358#0 358#1"/>
    </vehicle>
    <vehicle id="3" depart="0.15">
        <route edges="699#5 -1191#1 -1191#0 -1190 1192#0 1192#1 890#0 890#1 646#0 646#1 883#0 883#1 930 1177 1179 893#0 893#1 1189 912#0 912#1 912#2 901#0 901#1 908#1 908#2 1012#0 1012#1 1305 898 911 101"/>
    </vehicle>
    <vehicle id="4" depart="0.20">
        <route edges="818 1352#2 1331 1117 1329 1330 1261 863 856 866 1036#0 1036#1 1026#0 1026#1 938"/>
    </vehicle>
    <vehicle id="5" depart="0.25">
        <route edges="901#3 901#4 901#5 928 1006#0 1006#1 1007#0 1007#1 940#0 940#1 940#2 944 938 1180 1014 1001 932#0 932#1 932#2 932#3 932#4 932#5 1280 1281#0 1281#1 1281#2 1181#0 1181#1 1181#2 1181#3 1181#4 1181#5 843 781 1194#0 1194#1 1190 1191#0 1191#1 1191#2 1191#3 -1191#3"/>
    </vehicle>
    <vehicle id="8" depart="0.40">
        <route edges="1231 502 1008 1005 1011 1286 1196 646#0 646#1 883#0 883#1 930 1177 1179 893#0 893#1 1189 912#0 912#1 912#2 901#0 901#1 908#1 908#2 1012#0 206 -1296#0"/>
    </vehicle>
    <vehicle id="9" depart="0.45">
        <route edges="151 149 996 1189 912#0 912#1 912#2 901#0 913#1 876 24 1317 1219 569 1364 1220 1211 1246 -616#1 583"/>
    </vehicle>
    <vehicle id="11" depart="0.55">
        <route edges="1046#0 1046#1 973#2 1082 852#0 852#1 852#2 1204 700 1183 1367 1356 781 1194#0 772 -772"/>
    </vehicle>
    <vehicle id="12" depart="0.60">
        <route edges="706#0 706#1 839#1 1016#0 1016#1 1016#2 1016#3 1016#4 627 502 1008 1005 1011 1286 828 1280 -42 -888 -640#3 -640#2 648#0 648#1 -648#1"/>
    </vehicle>
    <vehicle id="13" depart="0.65">
        <route edges="-1119#1 1119#1 1113#1 1122 1329 1330 1261 863 856 866 1036#0 1036#1 1026#0 1026#1 941 893#0 150 145 1000 1360 1258 998 997 1274 1275#0 1275#1 1276"/>
    </vehicle>
    <vehicle id="14" depart="0.70">
        <route edges="766#1 766#2 -672#3 1201#1 1201#2 1201#3 1201#4 636#1 636#2 636#3 636#4 -636#4"/>
    </vehicle>
    <vehicle id="15" depart="0.75">
        <route edges="-640#0 640#0 640#1 640#2 640#3 888 890#0 890#1 1010 1197#0 1197#1 818 1352#2 1331 1117 1329 1330 1261"/>
    </vehicle>
    <vehicle id="16" depart="0.80">
        <route edges="699#3 699#4 699#5 -1191#1 -1191#0 -1190 1192#0 1192#1 890#0 890#1 646#0 -39#6 -39#5 -39#4 -39#3 -39#2 -39#1 -39#0"/>
    </vehicle>
    <vehicle id="17" depart="0.85">
        <route edges="1123 1270#0 -582 -615#1 -615#0 1268 1269 1244 1221#0 1221#1 1221#2 1091#0 1091#1 812#0 812#1 1207 217 1078 787#0 787#1 748 764#0 764#1 1201#0 -672#2 763#3 763#4 1202#0"/>
    </vehicle>
    <vehicle id="18" depart="0.90">
        <route edges="37 171 1185 1075 1076 1077 1070 180 38 1247 1094 1172 175#0 175#1 170 1236 1105#0 40#0 40#1 998 997 1274 1277 1362#0"/>
    </vehicle>
    <vehicle id="19" depart="0.95">
        <route edges="648#8 -648#2 -648#1 -648#0 640#2 640#3 888 890#0 890#1 646#0 646#1 883#0 883#1 930 1177 1179 893#0 150 145 1000 1360 1258 998 1320 1257 990#0 990#1 990#2 990#3 1313#0 1313#1 1313#2 1313#3 1313#4 1313#5 1313#6 11 1160#3 10 1225#0 1225#1 1163"/>
    </vehicle>
    <vehicle id="20" depart="1.00">
        <route edges="945#0 945#1 899 911 1302 902#0 902#1 857 917#1 916"/>
    </vehicle>
    <vehicle id="21" depart="1.05">
        <route edges="1268 1269 1244 1221#0 1221#1 1221#2 1091#0 1091#1 812#0 812#1 1207 217 1078 787#0 787#1 748 764#0 764#1 1201#0 -672#2 -672#1 -672#0 -669#2 73#0 -73#0"/>
    </vehicle>
    <vehicle id="22" depart="1.10">
        <route edges="2 1#0 158 159 157 -139#1 -139#0 31#1 1073 82 1077 1069 1185 77 59 1078 787#0 787#1 748 764#0 764#1 764#2 764#3 887#0 887#1 891#0 891#1 851 1198#0 1198#1 1141 1328 1046#0 1046#1 1046#2 747#0 747#1 -747#1"/>
    </vehicle>
    <vehicle id="23" depart="1.15">
        <route edges="45 -45 932#3 932#4 631#1 631#2 631#3 631#4 631#5 810 1308 637 1209#0 -1309 1306#0 1306#1 674 1075 1076 1077 172 995 1208 83 1086#0 -576#1 -576#0 576#0"/>
    </vehicle>
    <vehicle id="24" depart="1.20">
        <route edges="647 1355#1 1260 848#0 848#1 753 700 1183 1367 1356 781 1194#0 1194#1 1192#0 1192#1 890#0 890#1 646#0 646#1 883#0 883#1 930 1177 1179 893#0 893#1 1189 912#0 912#1 912#2 901#0 913#1 876 24 1317 1219 569 1364 1220 1256 1270#0 -582 615#2"/>
    </vehicle>
    <vehicle id="25" depart="1.25">
        <route edges="185#0 859 902#1 857 917#1 916 947#1 184 128 1037#0 1037#1 1037#2 1143 862 864 853 1039 1047#0 1047#1 1241 1049 1332#0 1354#2 127#3 1352#0"/>
    </vehicle>
    <vehicle id="27" depart="1.35">
        <route edges="-195#0 984#3 1108#1 1251 1271 1244 1221#0 1221#1 1221#2 1091#0 1091#1 812#0 812#1 29 80 1184 75#0 75#1 816 1230#0 550 -547#1 547#1"/>
    </vehicle>
    <vehicle id="28" depart="1.40">
        <route edges="909#2 865 1042 1037#0 1037#1 1037#2 1143 862 864 853 1039 1047#0 1047#1 1241 1049 1332#0 1332#1 1355#0 1355#1"/>
    </vehicle>
    <vehicle id="29" depart="1.45">
        <route edges="1038 1176#1 1020 1322 1019#0 949#1 949#2 1036#0 1036#1 1026#0 1026#1 941 893#0 150 145 1000 1360 41#0"/>
    </vehicle>
    <vehicle id="30" depart="1.50">
        <route edges="111 -1191#2 -1191#1 -1191#0 -1190 1192#0 1192#1 890#0 890#1 646#0 646#1 883#0 883#1 930 1177 1179 893#0 150 145 1000 1360 1258 998 1320 1257 1319 1318 152 957#4 1154"/>
    </vehicle>
    <vehicle id="32" depart="1.60">
        <route edges="949#0 949#1 949#2 1036#0 1036#1 1026#0 1026#1 941 893#0 893#1 1189 912#0 156 1136#5 1136#6 1136#7"/>
    </vehicle>
    <vehicle id="34" depart="1.70">
        <route edges="1152#1 -984#1 986#3 986#4 1359 1159#0 1159#1 1159#2 1311 1273 1257 1319 1318 1365 1360 41#0 41#1 1170#0 1170#1 1002 163"/>
    </vehicle>
    <vehicle id="35" depart="1.75">
        <route edges="-875#0 211 940#2 944 938 1180 1014 1001 932#0 932#1 932#2 932#3 932#4 932#5 1280 1278 1279#0 1279#1 1279#2 1279#3 127#1 817"/>
    </vehicle>
    <vehicle id="37" depart="1.85">
        <route edges="1143 862 864 853 1039 1047#0 1047#1 1241 854 1044 125 760 1260 848#0 848#1 753 700 1183 1367 1356 781 1194#0 1194#1 1192#0 -121#4 1193#1"/>
    </vehicle>
    <vehicle id="38" depart="1.90">
        <route edges="357#1 -357#1 -357#0 47#6 47#7 47#8 47#9 47#10 955 973#0 973#1 973#2 1082 852#0 852#1 852#2 1204 700 1183 1367 1356 781 1194#0 1194#1 1192#0 1192#1 890#0 890#1 646#0 646#1 883#0 883#1 930 1177 1179 893#0 150 145 1000 1360 1258 998 1320 1257 1319 1318"/>
    </vehicle>
    <vehicle id="39" depart="1.95">
        <route edges="858 917#1 945#0 945#1 945#2 1252 914#0 914#1 1304 1254#0 1254#1 919 940#0 940#1 940#2 944 938 1180 1014 1001 932#0 932#1 932#2 932#3 932#4 631#1 631#2 631#3 631#4 631#5 810 1308 637 1209#0 -1309 -811 1310#0 1310#1 1310#2 1310#3 1346 833"/>
    </vehicle>
    <vehicle id="40" depart="2.00">
        <route edges="1172 1175 105 1186#0 790 1174#1 37 171 1184 75#0 75#1 806 1195 840 502 1008 1005 1011 1286 1196 1010 1197#0 1197#1 818 1352#2 1331 1117 1329 1330 855#0 855#1 729 981#1"/>
    </vehicle>
    <vehicle id="41" depart="2.05">
        <route edges="1275#1 1276 1105#0 1105#1 1170#0 1170#1 937#0 937#1 880 1177 1178 1180 1014 1001 932#0 932#1 932#2 932#3 932#4 932#5 1280"/>
    </vehicle>
    <vehicle id="42" depart="2.10">
        <route edges="-66 1248 741 1079 808 1076 1077 1070 180 38 1247 1094 1172 175#0 175#1 170 1236 1105#0 1105#1 1170#0 1170#1 937#0 937#1 1176#0 1176#1 1020 1322 952 1021 1323#0 922#0"/>
    </vehicle>
    <vehicle id="43" depart="2.15">
        <route edges="912#2 901#0 913#1 876 24 1317 1219 1159#0 -1153#1 1153#1"/>
    </vehicle>
    <vehicle id="45" depart="2.25">
        <route edges="1147 1145#0 1145#1 9 68 1326#0 858 917#1 916 947#1 184 128 1037#0 1037#1 1037#2 1143 862 864 853 1039 1047#0 1047#1 1241 1049 1332#0 1332#1 1355#0 1355#1"/>
    </vehicle>
    <vehicle id="46" depart="2.30">
        <route edges="-352#0 -351#0 -362#0 47#5 47#6 47#7 47#8 47#9 47#10 955 973#0 973#1 973#2 1082 852#0 852#1 852#2"/>
    </vehicle>
    <vehicle id="47" depart="2.35">
        <route edges="788#1 46 1170#1 957#0 957#1 957#2 1366 1360 1258 998 997 1274 1275#0 -229#1 979#2"/>
    </vehicle>
    <vehicle id="48" depart="2.40">
        <route edges="835 -835 1016#2 1016#3 1016#4 831#0 831#1 655#0 655#1 655#2 655#3 655#4 784 1234 176#0 176#1 1237 1236 1105#0 40#0 40#1 998 1320 1257 990#0 990#1 990#2 990#3 1313#0 1313#1 1313#2 1313#3 1313#4 1313#5 1066 958#2 958#3 958#4"/>
    </vehicle>
    <vehicle id="49" depart="2.45">
        <route edges="-119 -73#0 669#2 672#0 672#1 763#3 763#4 660 764#2 764#3 925 926#0 926#1 794"/>
    </vehicle>
    <vehicle id="50" depart="2.50">
        <route edges="-584 614#1 614#2 576#1 1086#1 1106#0 1106#1 1106#2 1107 1221#1 1221#2 174#0 174#1 174#2 1311 1273 1257 1319 1318 151 149 996 1189 921 944 938 1180 1014 1001 932#0 932#1 932#2 932#3 932#4 932#5 1280 -42 -888 -640#3 -640#2 648#0 648#1 648#2 -648#8"/>
    </vehicle>
    <vehicle id="51" depart="2.55">
        <route edges="1202#0 1202#1 60 61 746#0 746#1 1071 1248 1068 103 1208 83 1086#0 -576#1 -576#0 576#0"/>
    </vehicle>
    <vehicle id="53" depart="2.65">
        <route edges="1176#0 1176#1 1020 1322 1019#0 949#1 949#2 1050 1040 909#0 909#1 909#2 867 1254#0 1254#1 913#0 913#1 876 24 1317 1219 569 1364 1220 1256 1270#0 1270#1 -580 615#3"/>
    </vehicle>
    <vehicle id="54" depart="2.70">
        <route edges="1342 1344 1351 1350 1349 1334 637 1209#0 -1309 1306#0 815 75#1 806 1195 840 502 1008 1005 1011 1286 1196 646#0 646#1 883#0 883#1 930 1177 1178 1180 1014 1001"/>
    </vehicle>
    <vehicle id="55" depart="2.75">
        <route edges="1354#1 1354#2 1343#0 1343#1 1343#2 1343#3 1343#4 631#0 631#1 631#2 631#3 631#4 631#5 810 1308 637 1209#0 -1309 1306#0 1306#1 674 1075 1076 1077 1069 1184 75#0"/>
    </vehicle>
    <vehicle id="56" depart="2.80">
        <route edges="1110 1315 1168 173#0 173#1 105 1186#0 790 1174#1 37 171 1184 75#0 75#1 806 1195 840 502 532 39#2 39#3 39#4 86"/>
    </vehicle>
    <vehicle id="57" depart="2.85">
        <route edges="855#0 855#1 855#2 1262 1021 1323#0 922#0 922#1 932#1 932#2 932#3 932#4 932#5 1280 1281#0 1281#1 1281#2 1181#0 1181#1 773 -773"/>
    </vehicle>
    <vehicle id="58" depart="2.90">
        <route edges="-361 47#7 47#8 47#9 47#10 955 973#0 973#1 973#2 1082 852#0 852#1 852#2 1204 700 1183 1367 1356 781 1194#0 1194#1 1192#0 1192#1 890#0 890#1 646#0 646#1 883#0 883#1 930 1177 1179 893#0 893#1 1189 912#0 912#1 912#2 901#0 913#1 876 24 1317 1219 569 1363 1152#0 1152#1 1152#2 1152#3 12#2"/>
    </vehicle>
    <vehicle id="59" depart="2.95">
        <route edges="1122 1329 1330 855#0 855#1 855#2 1262 1021 1323#0 1323#1 1323#2 934#0 934#1 1015 234 839#0 839#1 -1004 1017#0"/>
    </vehicle>
    <vehicle id="60" depart="3.00">
        <route edges="990#1 990#2 990#3 1314 1135#0 1135#1 877 908#0 908#1 908#2 1012#0 206 1296#1 1006#1 1007#0"/>
    </vehicle>
    <vehicle id="61" depart="3.05">
        <route edges="1160#3 10 1225#0 1162 989 1325 1326#0 858 917#1 916 947#1 184 128 1037#0 1037#1 1037#2 1143 862 864 853 1039 1047#0 1047#1 1241 854 1044 125 760 1260 848#0 751 1142#1 1051#0 1051#1 1116"/>
    </vehicle>
    <vehicle id="62" depart="3.10">
        <route edges="1348#0 1348#1 1346 833 1078 787#0 787#1 748 764#0 764#1 766#0 766#1 394#0"/>
    </vehicle>
    <vehicle id="63" depart="3.15">
        <route edges="1043 1044 125 760 1260 848#0 848#1 753 700 1183 1367 1356 781 1194#0 1194#1 1192#0 1192#1 890#0 890#1 646#0 646#1 883#0 883#1 930 1177 1179 893#0 893#1 1189 912#0 912#1 912#2 901#0 897 894 895 1136#1 1136#2"/>
    </vehicle>
    <vehicle id="64" depart="3.20">
        <route edges="372#0 373 356#2 955 973#0 -369#3 -369#2"/>
    </vehicle>
    <vehicle id="65" depart="3.25">
        <route edges="126 1330 855#0 855#1 855#2 1262 1021 1323#0 922#0 922#1 932#1 932#2 932#3 782 1115#1 1118"/>
    </vehicle>
    <vehicle id="67" depart="3.35">
        <route edges="648#5 648#6 648#7 648#8 -648#2 -648#1 -648#0 640#2 640#3 888 42 1281#0 1281#1 1281#2 1181#0 1181#1 1181#2 1181#3 1181#4 1181#5 843 781 1194#0 1194#1 1192#0 -121#4"/>
    </vehicle>
    <vehicle id="68" depart="3.40">
        <route edges="-111 121#2 121#3 121#4 1192#1 42 1278 1279#0 87#1"/>
    </vehicle>
    <vehicle id="69" depart="3.45">
        <route edges="656 -669#4 -668#4 -668#3 -668#2 -668#1 1201#2 618#0 618#1 618#2 -618#2"/>
    </vehicle>
    <vehicle id="70" depart="3.50">
        <route edges="-731 -195#0 984#3 1108#1 1251 1271 1244 1221#0 1221#1 1221#2 1091#0 1104 1103 1169"/>
    </vehicle>
    <vehicle id="71" depart="3.55">
        <route edges="75#1 816 1230#0 1230#1 807 1232 655#0 655#1 655#2 655#3 655#4 784 1234 176#0 176#1 1237 1236 1105#0 40#0 40#1 998 1320 1257 990#0 990#1 990#2 990#3 1313#0 1313#1 983#0"/>
    </vehicle>
    <vehicle id="72" depart="3.60">
        <route edges="45 -45 932#3 932#4 631#1 631#2 631#3 631#4 631#5 810 1308 637 1209#0 -1309 1306#0 1306#1 674 1075 1076 1077 172 995 1208 83 1086#0 1086#1 1106#0 1106#1 1106#2 1245 1216 1256"/>
    </vehicle>
    <vehicle id="73" depart="3.65">
        <route edges="535 1009 1005 1011 1286 1196 646#0 646#1 883#0 883#1 930 1177 1178 1180 879 1020 1322 952"/>
    </vehicle>
    <vehicle id="75" depart="3.75">
        <route edges="-212 1137 1136#0 1136#1 1136#2 1136#3 1136#4 1136#5 18 19 21 1154 982#0 982#1 990#1 990#2 990#3 1314 1127#0 1127#1 977"/>
    </vehicle>
    <vehicle id="76" depart="3.80">
        <route edges="-139#2 -139#1 -139#0 31#1 1073 82 1077 172 995 1208 83 1086#0 1086#1 1106#0 1106#1 1106#2 1245 1132 1133 1250 978 1358#0 1358#1"/>
    </vehicle>
    <vehicle id="77" depart="3.85">
        <route edges="-360 47#9 47#10 955 973#0 973#1 973#2 1082 852#0 852#1 852#2 1204 1052 1142#0 1142#1 1051#0 1051#1 1116 124 126 1330 1261 863 856 866 1050 1040 909#0 909#1 909#2 1041#0 1041#1 1041#2 911 1302 902#0"/>
    </vehicle>
    <vehicle id="78" depart="3.90">
        <route edges="-982#0 982#0 982#1 990#1 990#2 990#3 1313#0 1313#1 1313#2 1313#3 1313#4 1313#5 1313#6 1313#7"/>
    </vehicle>
    <vehicle id="79" depart="3.95">
        <route edges="926#2 1222 660 764#2 764#3 887#0 887#1 891#0 891#1 851 1198#0 1198#1 756 1142#0 1142#1 1051#0 1051#1 1116 124 126 1330 1261 863 856 866 1050 1040 909#0 909#1 909#2 865 1042 1037#0 1037#1 1037#2 951#0"/>
    </vehicle>
    <vehicle id="80" depart="4.00">
        <route edges="1354#1 1354#2 1343#0 1343#1 1343#2 1343#3 1343#4 631#0 932#5 1280 1281#0 1281#1 1281#2 1181#0 1181#1 1181#2 1181#3 776 1182#3 -131#1 131#1"/>
    </vehicle>
    <vehicle id="81" depart="4.05">
        <route edges="142 986#1 986#2 986#3 986#4 1359 569 1364 1129 1221#0 1221#1 1221#2 1091#0 1091#1 812#0 812#1 1207 217 1078 787#0 787#1 748 764#0 764#1 766#0 766#1 766#2"/>
    </vehicle>
    <vehicle id="82" depart="4.10">
        <route edges="-370 747#1 349 356#0 356#1 356#2 955 973#0 973#1 973#2 1082 852#0 852#1 852#2 1204 700 1183 1367 1356 923#0 923#1 926#0 926#1 926#2 1222 660 1201#0 1201#1 1201#2 1201#3 1201#4 636#1 636#2"/>
    </vehicle>
    <vehicle id="84" depart="4.20">
        <route edges="655#2 655#3 655#4 784 1234 176#0 176#1 1235 1167 1186#0 1186#1 1247 1094 182 177 1085 1086#0 1086#1 1106#0 1106#1 1106#2 1245 1216 1256 1270#0 -582 -615#1 -581 -1264#0"/>
    </vehicle>
    <vehicle id="85" depart="4.25">
        <route edges="957#1 957#2 1366 1360 1258 998 1320 1257 1319 1318 151 149 996 1189 921 944 938 1180 1014 1001 932#0 932#1 932#2 932#3 932#4 631#1 631#2 631#3 631#4 631#5 810 1308 637 1209#0 -1309 -811 1310#0 1310#1 1310#2"/>
    </vehicle>
    <vehicle id="86" depart="4.30">
        <route edges="1104 1103 1171#0 1171#1 1171#2 1276 1105#0 40#0 40#1 998 1320 1257 1319 1318"/>
    </vehicle>
    <vehicle id="87" depart="4.35">
        <route edges="-357#2 -357#1 -357#0 47#6 47#7 47#8 47#9 47#10 955 973#0 973#1 973#2 1082 852#0 852#1 852#2 1204 700 1183 1367 1356 923#0 923#1 926#0 926#1 926#2 1222 660 1201#0 1201#1 668#1 668#2 668#3 668#4 669#4 -669#4"/>
    </vehicle>
    <vehicle id="88" depart="4.40">
        <route edges="210 901#5 928 1006#0 1006#1 1007#0 1007#1 940#0 940#1 940#2 944 941 893#0 893#1 1189 912#0 912#1 912#2 901#0 913#1 876 24 1317 1219 569 1364 1220 1256 1270#0 -582 615#2"/>
    </vehicle>
    <vehicle id="89" depart="4.45">
        <route edges="1159#0 -1153#1 1362#3 1363 1152#0 1152#1 984#2 984#3 1108#1 1251"/>
    </vehicle>
    <vehicle id="90" depart="4.50">
        <route edges="-1279#0 -1278 -42 890#0 890#1 646#0 646#1 883#0 883#1 930 1177 1179 893#0 893#1 1189 912#0 912#1 912#2 901#0 913#1 876 24 1317 1219 569 1363 978 1358#0 1358#1"/>
    </vehicle>
    <vehicle id="92" depart="4.60">
        <route edges="957#5 -1155 982#0 982#1 990#1 990#2 990#3 1313#0 1313#1 1313#2"/>
    </vehicle>
    <vehicle id="93" depart="4.65">
        <route edges="1201#4 1201#5 633 1203 1308 637 1209#0 -1309 1306#0 1306#1 674 1075 1076 1077 172 995 1208 83 1086#0 1086#1 1106#0 1106#1 1106#2 1245 1132 1133 1250 1152#0 1152#1 1152#2 1152#3"/>
    </vehicle>
    <vehicle id="94" depart="4.70">
        <route edges="1150 1157 1151#2 1146 69#2 1090 974 194 1091#0 1091#1 812#0 812#1 1207 217 1078 787#0 787#1 748 764#0 764#1 764#2 764#3 887#0 887#1"/>
    </vehicle>
    <vehicle id="95" depart="4.75">
        <route edges="1279#2 -1279#2 88 1343#3 1343#4 631#0 631#1 631#2 631#3 631#4 631#5 810 1308 637 1209#0 -1309 1306#0 1306#1 674 1075 1076 1077 1070 180 38 1247 428 1095 -1097 1097"/>
    </vehicle>
    <vehicle id="96" depart="4.80">
        <route edges="923#0 923#1 926#0 26#1 887#0 887#1 891#0 1194#0 1194#1 1192#0 -121#4 -121#3"/>
    </vehicle>
    <vehicle id="98" depart="4.90">
        <route edges="761 1328 1046#0 1046#1 973#2 1082 852#0 852#1 852#2 1204 700 1183 1367 1356 781 1194#0 1194#1 1190 1191#0 1191#1 1191#2 1191#3 669#0 -118#1 -119 73#1"/>
    </vehicle>
    <vehicle id="99" depart="4.95">
        <route edges="948#1 1042 1037#0 1037#1 1037#2 1143 862 864 853 1039 1047#0 1047#1 1241 1049 1332#0 1354#2 1343#0 1343#1 1343#2 1343#3 1343#4 631#0 932#5 1280 -42 -888 -640#3 -640#2 648#0 648#1 648#2 -648#8 639 648#5"/>
    </vehicle>
    <vehicle id="100" depart="5.00">
        <route edges="1242 1241 1049 1332#0 1354#2 1343#0 1343#1 1343#2 1343#3 1343#4 631#0 631#1 631#2 631#3 631#4 762#0 762#1 763#0 763#1 -668#1 1201#2 618#0 -618#0"/>
    </vehicle>
    <vehicle id="101" depart="5.05">
        <route edges="357#0 -357#0 47#6 47#7 47#8 47#9 47#10 955 973#0 973#1 973#2 1082 852#0 852#1 852#2 1204 700 1183 1367 1356 781 1194#0 1194#1 1192#0 1192#1 890#0 890#1 646#0 646#1 883#0 883#1 930 1177 1179 893#0 893#1 1189 912#0 912#1 912#2 901#0 897 894 905 907#0 907#1"/>
    </vehicle>
    <vehicle id="102" depart="5.10">
        <route edges="-632#0 -636#4 -636#3 -636#2 763#1 763#2 763#3 763#4 660 764#2 764#3 887#0 887#1 891#0 891#1 851 1198#0 1198#1 1141 1328 1046#0 1046#1 973#2 1082 852#0 852#1 852#2 759"/>
    </vehicle>
    <vehicle id="103" depart="5.15">
        <route edges="1237 1236 1105#0 40#0 40#1 998 997 1274 1277 1361#0 1361#1 1361#2 1315 1168 173#0 173#1 105 1186#0 790 1174#1 37 171 1185 77 59 1078 787#0 787#1 748 671#0 671#1 666 677"/>
    </vehicle>
    <vehicle id="104" depart="5.20">
        <route edges="1075 1076 1077 1069 1185 77 59 1078 787#0 787#1 748 764#0 764#1 1201#0 1201#1 1201#2 618#0 618#1 -618#1"/>
    </vehicle>
    <vehicle id="105" depart="5.25">
        <route edges="-1190 1192#0 1192#1 890#0 890#1 646#0 646#1 883#0 783 882#1 934#0 934#1 1015 1018 1234 176#0 176#1"/>
    </vehicle>
    <vehicle id="106" depart="5.30">
        <route edges="-648#4 -648#3 -648#2 -648#1 -648#0 640#2 640#3 888 890#0 890#1 646#0 646#1 883#0 883#1 930 1177 1179 893#0 893#1 1189 921 942#0 942#1 1032#0 155#0 -875#0"/>
    </vehicle>
    <vehicle id="107" depart="5.35">
        <route edges="1034 1033 909#2 867 1254#0 1254#1 913#0 897 894 895 1136#1 1136#2 1136#3 1136#4 1136#5 1136#6 1136#7 1136#8 937#1 881"/>
    </vehicle>
    <vehicle id="108" depart="5.40">
        <route edges="1315 1103 1171#0 1171#1 979#0 979#1 979#2 1362#0 1362#1 1362#2 1362#3 1363 1152#0 1152#1 1152#2 1152#3 1152#4 1151#0 1150 -195#2"/>
    </vehicle>
    <vehicle id="109" depart="5.45">
        <route edges="-542#1 -542#0 655#1 655#2 655#3 655#4 784 1234 176#0 176#1 1235 1167 1186#0 790 1174#1 37 171 1185 1075 1076 1077 172 995 1208"/>
    </vehicle>
    <vehicle id="110" depart="5.50">
        <route edges="-394#0 766#2 -672#3 1201#1 1201#2 1201#3 1201#4 1201#5 633 1203 1308 637 1209#0 -1309 1306#0 1306#1 674 1075 1076 1077 1070 180 38 1247 1094 1172 175#0 175#1 170 1236 1105#0 1105#1 1170#0 1170#1 937#0 937#1 1176#0 1176#1 1020 1322 1019#0 1019#1 868 954"/>
    </vehicle>
    <vehicle id="111" depart="5.55">
        <route edges="98 1195 840 502 1008 1005 1011 1286 1196 1010 1197#0 1197#1 818 1352#2 1331"/>
    </vehicle>
    <vehicle id="112" depart="5.60">
        <route edges="1302 902#0 902#1 902#2 1243#3 1224 987 985#0 985#1 1151#0 1151#1 1151#2 1146 69#2 1108#0 1108#1 1109 1270#0 1270#1 1270#2 1088#0 1088#1 1101"/>
    </vehicle>
    <vehicle id="113" depart="5.65">
        <route edges="1308 637 1209#0 -1309 1306#0 1306#1 674 1075 1076 1077 1070 180 38 1247 1094 1172 175#0 175#1 170 1236 1105#0 40#0"/>
    </vehicle>
    <vehicle id="114" depart="5.70">
        <route edges="706#0 706#1 839#1 1016#0 1016#1 1016#2 1016#3 1016#4 627 502 1008 1005 1011 1286 1196 1010 1197#0 1119#0 1119#1 1113#1"/>
    </vehicle>
    <vehicle id="115" depart="5.75">
        <route edges="1106#0 1106#1 1106#2 1107 1221#1 1221#2 1091#0 1091#1 812#0 812#1 29 80 1185 1075 30 963 1074#0 1074#1"/>
    </vehicle>
    <vehicle id="116" depart="5.80">
        <route edges="1136#3 1136#4 1136#5 1136#6 1136#7 1136#8 937#1 880 1177 1178 1180 1014 1001 932#0 932#1 932#2 932#3 932#4 631#1 631#2 631#3 631#4 762#0 762#1 763#0 636#2 636#3 -636#3"/>
    </vehicle>
    <vehicle id="117" depart="5.85">
        <route edges="885#0 -885#0 -99 883#0 883#1 930 1177 1179 893#0 150 145 1000 1360 1258 998 1320 1257 990#0 990#1 990#2 990#3 1313#0 1313#1 1313#2 1313#3 1313#4 1313#5 1166 980#3 1227 1151#0 1151#1"/>
    </vehicle>
    <vehicle id="119" depart="5.95">
        <route edges="69#0 69#1 69#2 1090 974 194 1091#0 1091#1 812#0 812#1 1207 217 1078 787#0 787#1 748 764#0 764#1 764#2 764#3 887#0 887#1 891#0 1194#0 1194#1 1192#0 -121#4"/>
    </vehicle>
    <vehicle id="120" depart="6.00">
        <route edges="583 1106#2 1107 1221#1 1221#2 174#0 174#1 174#2 1311 1273 1257 1319 1318 1365 1360 41#0 41#1 1170#0 1170#1 937#0 937#1 1176#0 1176#1 1020 1322 1019#0 1019#1 868 954 864 853 1039 1047#0 49 1240#0 44 -44"/>
    </vehicle>
    <vehicle id="122" depart="6.10">
        <route edges="577#0 -577#0 614#2 576#1 1086#1 1106#0 1106#1 1106#2 1107 1221#1 1221#2 1091#0 1091#1 812#0 812#1 29 80 1184 75#0 75#1 816 1230#0 1230#1 807 1233#0 1233#1"/>
    </vehicle>
    <vehicle id="123" depart="6.15">
        <route edges="1034 1033 909#2 867 1254#0 1254#1 913#0"/>
    </vehicle>
    <vehicle id="124" depart="6.20">
        <route edges="848#0 848#1 753 700 1183 1367 1356 781 1194#0 1194#1 1192#0 1192#1 42 1278 1279#0"/>
    </vehicle>
    <vehicle id="125" depart="6.25">
        <route edges="-1292#0 1291#0 1291#1 1291#2 1324#1 1324#2 1325 1326#0 858 917#1 945#0 945#1 945#2 1252 914#0 914#1 1304 1254#0 1254#1 913#0 897 894 895 1136#1 1136#2 1136#3 1136#4 1136#5 1136#6 1136#7 1136#8 937#1 881 934#0 934#1 1015 234 839#0 839#1 -1004"/>
    </vehicle>
    <vehicle id="126" depart="6.30">
        <route edges="32#0 -32#0 932#2 932#3 932#4 932#5 1280 -42 890#0 890#1 646#0 646#1 883#0 883#1 930 1177 1179 893#0 150 145 1000 1360 1258 998 997 1274 1277 1361#0 1361#1 141"/>
    </vehicle>
    <vehicle id="128" depart="6.40">
        <route edges="926#0 26#1 887#0 887#1 891#0 891#1 851 1198#0 1198#1 756 1142#0 1142#1 1051#0 1051#1 127#0 127#1 127#2 127#3 1352#0 1197#4"/>
    </vehicle>
    <vehicle id="129" depart="6.45">
        <route edges="362#2 -362#2 -362#1 -362#0 47#5 47#6 47#7 47#8 47#9 47#10 955 973#0 973#1 973#2 1082 852#0 852#1 852#2 1204 700 1183 1367 1356 781 1194#0 1194#1 1192#0 1192#1 890#0 890#1 646#0 646#1 883#0 883#1 930 1177 1179 893#0 893#1 1189 912#0 912#1 912#2 901#0 913#1 876 24 1317 1219 569 1364 1220 1256 1270#0"/>
    </vehicle>
    <vehicle id="130" depart="6.50">
        <route edges="836 655#3 655#4 784 1234 176#0 176#1 1237 1236 1105#0 40#0 40#1 998 997 1274 1277 1361#0 1361#1 141"/>
    </vehicle>
    <vehicle id="131" depart="6.55">
        <route edges="393#0 -393#0 764#1 764#2 764#3 887#0 887#1 891#0 1194#0 772 892#2"/>
    </vehicle>
    <vehicle id="132" depart="6.60">
        <route edges="864 853 1039 1047#0 1047#1 1241 1049 1332#0 1354#2 1343#0 1343#1 1343#2 1343#3 1343#4 631#0 631#1 631#2 631#3 631#4 762#0 762#1 763#0 -636#1"/>
    </vehicle>
    <vehicle id="134" depart="6.70">
        <route edges="1366 1360 1258 998 997 1274 1277 1361#0 1361#1 1361#2 1315 1168 173#0 173#1 105 1186#0 790 1174#1 37 171 1185 77 59 1078 787#0 787#1 748 671#0 671#1 -671#1"/>
    </vehicle>
    <vehicle id="135" depart="6.75">
        <route edges="-885#1 885#1 885#2 885#3 1004 1016#0 1016#1 1016#2 1016#3 1016#4 627 502 1008 1005 1011 1286 1196 1010 1197#0 1197#1 1197#2 819 1343#1"/>
    </vehicle>
    <vehicle id="136" depart="6.80">
        <route edges="1133 1250 978 1358#0 1358#1 1314 1135#0 1135#1 877 908#0 901#2 901#3 901#4 901#5 1013 1324#0"/>
    </vehicle>
    <vehicle id="137" depart="6.85">
        <route edges="1013 1324#0 1324#1 1324#2 1325 1326#0 858 917#1 945#0 945#1 945#2 1252 914#0 914#1 1304 1254#0 1254#1 913#0 913#1 876 24 1317 1219 569 1364 1220 1211 1246 -616#1 583 1106#2 1245 1216"/>
    </vehicle>
    <vehicle id="138" depart="6.90">
        <route edges="-358#0 973#0 973#1 973#2 1082 852#0 852#1 852#2 1204 700 1183 1367 1356 923#0 923#1 926#0 926#1 926#2 1222 1202#0 1202#1 60 61 746#0 746#1 1071 1248 741 1079 808 1076 1077 1070"/>
    </vehicle>
    <vehicle id="139" depart="6.95">
        <route edges="940#2 944 941 893#0 893#1 1189 912#0 912#1 912#2 901#0 897 894 895 1136#1"/>
    </vehicle>
    <vehicle id="142" depart="7.10">
        <route edges="49 1242 1241 1049 822 1331 1120 -1113#1"/>
    </vehicle>
    <vehicle id="143" depart="7.15">
        <route edges="669#6 121#0 121#1 121#2 121#3 121#4 1192#1 890#0 890#1 646#0 -39#6 -39#5 -39#4 -39#3 -39#2 -39#1 -39#0 1016#3 1016#4 831#0 831#1 655#0 655#1 838#0 838#1 838#2 544"/>
    </vehicle>
    <vehicle id="144" depart="7.20">
        <route edges="729 981#1 1047#0 1047#1 1241 854 1044 125 760 1260 848#0 848#1 753 700 1183 1367 1356 781 1194#0 1194#1 1190 1191#0 1191#1 1191#2 699#0 699#1 699#2 699#3"/>
    </vehicle>
    <vehicle id="145" depart="7.25">
        <route edges="647 1355#1 1260 848#0 848#1 753 700 1183 1367 1356 781 1194#0 1194#1 1192#0 1192#1 890#0 890#1 646#0 646#1 883#0 883#1 930 1177 1179 893#0 893#1 1189 912#0 912#1 912#2 901#0 913#1 876 24 1317 1219 569 1363 1152#0 -983#1"/>
    </vehicle>
    <vehicle id="146" depart="7.30">
        <route edges="1362#3 1363 978 1358#0 1358#1 1314 1135#0 1135#1 877 908#0 908#1 1007#1 940#0 940#1 940#2 944 938 1180 1014 1001 932#0 932#1 932#2 932#3 932#4 631#1 631#2 631#3 631#4 762#0 762#1 763#0 -636#1"/>
    </vehicle>
    <vehicle id="147" depart="7.35">
        <route edges="631#0 932#5 1280 -42 890#0 890#1 646#0 646#1 883#0 883#1 930 1177 1179 893#0 150 145 1000 1360 1258 998 1320 1257 990#0 990#1 990#2 990#3 1313#0 1313#1 983#0"/>
    </vehicle>
    <vehicle id="148" depart="7.40">
        <route edges="1194#1 659 1181#3 1181#4 1181#5 843 923#0 923#1 926#0 926#1 926#2 1222 660 1201#0 1201#1 -668#0 766#4"/>
    </vehicle>
    <vehicle id="149" depart="7.45">
        <route edges="1011 1286 1196 646#0 646#1 883#0 883#1 930 1177 1179 893#0 893#1 1189 912#0 912#1 912#2 901#0 913#1 876 24 1317 1219 569 1364 1220 1256 1270#0 -582 615#2"/>
    </vehicle>
    <vehicle id="150" depart="7.50">
        <route edges="1115#0 -782 932#4 932#5 1280 1281#0 1281#1 1281#2 1181#0 1181#1 1181#2 1181#3 1181#4 1181#5 843 781 1194#0 1194#1 1192#0 -121#4 -121#3 -121#2 -121#1 -121#0 -669#6"/>
    </vehicle>
    <vehicle id="151" depart="7.55">
        <route edges="857 917#1 945#0 945#1 945#2 1252 914#0 914#1 1304 1254#0 1254#1 913#0 913#1 876 24 1317 1219 1159#0 1153#2"/>
    </vehicle>
    <vehicle id="152" depart="7.60">
        <route edges="1261 863 856 866 1036#0 1036#1 1026#0 1026#1 938 1180 1014 1001 932#0 932#1 932#2 932#3 932#4 631#1 631#2 631#3 631#4 762#0 762#1 763#0 763#1 763#2 763#3 763#4 1202#0 694"/>
    </vehicle>