<?xml version="1.0" encoding="UTF-8"?>

<!-- generated on 02/22/17 12:39:45 by SUMO duarouter Version 0.24.0
<?xml version="1.0" encoding="UTF-8"?>

<configuration xmlns:xsi="http://www.w3.org/2001/XMLSchema-instance" xsi:noNamespaceSchemaLocation="http://sumo.dlr.de/xsd/duarouterConfiguration.xsd">

    <input>
        <net-file value="input_net.net.xml"/>
        <trip-files value="trips.trips.xml"/>
    </input>

    <output>
        <output-file value="routes.rou.xml"/>
    </output>

</configuration>
-->

<routes xmlns:xsi="http://www.w3.org/2001/XMLSchema-instance" xsi:noNamespaceSchemaLocation="http://sumo.dlr.de/xsd/routes_file.xsd">
    <vehicle id="0" depart="0.00">
        <route edges="-302857656#1 302857657#0 302857658#0 -302857658#0"/>
    </vehicle>
    <vehicle id="2" depart="0.10">
        <route edges="-429080700#2 429080700#2 146688868#0 146688868#1 146688868#2 447226543#1 447226543#2 447226543#3 447226543#4 447226543#5 429011416 447226544 456766135 429011446 448284881#0 -456766136 456766133#0 440042584 118265810#1"/>
    </vehicle>
    <vehicle id="3" depart="0.15">
        <route edges="-429080715 -429080702#3 -429080702#2 -429080702#1 447226543#2 447226543#3 447226543#4 447226543#5 429011416 447226544 456766135 429011446 448284881#0 -456766136 456766133#0 456766133#1 118265791 443159490 443159494 443159486 442779564 232967184 328501144 450350861 444018070 445046647 232967181#0 232967181#1 232602656 449785730 443987641#0 29141657#0 29141657#1 29118096 457886988 450926204 27318126#0 27318126#1 27318126#2 27318126#3 457885320#0 457885320#1 457885320#2 457885320#3 457885320#4 457885320#5 444422734 248282332#3 248282336#0 248282336#1"/>
    </vehicle>
    <vehicle id="4" depart="0.20">
        <route edges="-188246593 444149844 444232018#0 444232018#1 243319591 334124302#2 440771228 440897382#0 440897382#1 440897382#2 402932403#0 402932403#1 442084725#0 442084725#1 442084725#2 442232081 442087559 233809682"/>
    </vehicle>
    <vehicle id="6" depart="0.30">
        <route edges="441997991#1 440774131 445078262 445078264 440881562#0 440881562#1 446148172 334124302#0 334124302#1 334124302#2 440881629#0 440897034#1 248407685"/>
    </vehicle>
    <vehicle id="7" depart="0.35">
        <route edges="119029072 228124191 228124190 462138643 451041313 29118096 457886988 450926204 457884963 457886989 119029073 228124193 228124192 446148172 440881563 440897383 194345865 445078265 442016277 441997997 441997995#0 441997995#1 441997995#2 441997995#3 441997995#4"/>
    </vehicle>
    <vehicle id="8" depart="0.40">
        <route edges="312565415#1 442010286 298344725 440062732#0 440062732#1 442016957#0 442016957#1 442016957#2 442016957#3 442016957#4 264409075 240381910 442013841 442014415 442013842 454843354 447215986 442014416 447215989#0 429011415#0 429011415#1 429011415#2 429011415#3 429011415#4 429011417#0 429011417#1 439901406#0 439901406#1 439901406#2 439901406#3 439902715"/>
    </vehicle>
    <vehicle id="9" depart="0.45">
        <route edges="233525478 462131779 199898039 462138647 444126143 448790076#0 448790076#1 448790076#2 444018069#0 444018069#1 40016147#0"/>
    </vehicle>
    <vehicle id="10" depart="0.50">
        <route edges="29140830#2 -29140830#2 -29140830#1 248282336#3 248282336#4 462131778#0 462131778#1 457885321 444232017#0 444232017#1 248407682 248407684#0 248407684#1 442014419#1 440897382#0 440897382#1 440897382#2 440897383 194345865 445078265 440774132 442016278 458080382 442016279#0 442016279#1 194345864 403907823"/>
    </vehicle>
    <vehicle id="11" depart="0.55">
        <route edges="-440771230#1 -440771230#0 334124304 440897382#2 440897383 194345865 445078265 440774132 442016278 458080382 441997994 442016280 458084591#0 458084591#1 458084591#2 312565415#0 312565415#1 442010286 298344725 440062732#0 440062732#1 442016957#0 442016957#1 442016957#2 442016957#3 442016957#4 429011448#0 429011448#1 429011445#0 429011445#1 322620773#0 322620773#1 322620773#2"/>
    </vehicle>
    <vehicle id="12" depart="0.60">
        <route edges="462332989 461504894#0 461504894#1 461504894#2 459592474 444111344 -444118069#1 -444118069#0 -444118070 -89797643 441997995#3 441997995#4 441997995#5 454300889 454300892#0 454300892#1 454300892#2 445080100#0 445080100#1 445080100#2 445080100#3 445080100#4 445080100#5 440187406 447215990#0 447215990#1 444351506 458714677 442232090#0 303475999 -303475998#1 304755520"/>
    </vehicle>
    <vehicle id="13" depart="0.65">
        <route edges="444018067 232602810 233932486 29165238#0 29165238#1 29165238#2 457176635 453717286 450926204 457884963 457886989 446148167 462138643 29141670#0 29141670#1 445014537#0 445014537#1 441997991#0 441997991#1 440774133 312565415#0 312565415#1 442010286 442016281 449785728 232967182#0"/>
    </vehicle>
    <vehicle id="14" depart="0.70">
        <route edges="29118093#3 29118093#4 29118093#5 29118093#6 457886991 448790074 199898039 462138646 233525478"/>
    </vehicle>
    <vehicle id="15" depart="0.75">
        <route edges="-429080690 -429011436#0 429011429#3 440881187 440881189#0 440881189#1 442014416 447215987#0 447215987#1 440057978 461504894#2 459592474 444119992 459587614 459587615 440765420#0 440765420#1 374048528 79182771#1 442232085#0 442232085#1 449862105"/>
    </vehicle>
    <vehicle id="16" depart="0.80">
        <route edges="-188248177 443987645#1 443987645#2 443987646 448790076#1 448790076#2 444018069#0 444018069#1 40016147#0 40016147#1 448280094 40020605 443160016 440044937#0 440044937#1 439897796 439897795#0 439897795#1 439897795#2 439897795#3 440881184#0 440881184#1 440881185#0 440881185#1 440187406 447215990#0 447215990#1 444351506 458714677 442232090#0 442232090#1 80912821#2"/>
    </vehicle>
    <vehicle id="17" depart="0.85">
        <route edges="429080720#0 429080720#1 429080721 429080724 456766132#3 460737119 460737120 440038226 443178673#0 443178673#1 443178672#0 440041773#0 440041773#1 449785723#0 322628974 -322628974"/>
    </vehicle>
    <vehicle id="20" depart="1.00">
        <route edges="444422644 458696110#0 458696110#1 458696110#2 458696117 458696120#0 440769419 194344114#1 440897026#0 440897026#1 440897026#2 450614679 440897030#0 440897030#1 456541502 450920619#0 450920619#1 440771240 440897382#0 440897382#1 440897382#2 440897383 194345865 445078265 442016277 441997997 441997995#0 441997995#1 441997995#2 441997995#3 441997995#4 429011415#1 429011415#2 429011429#0 429011429#1"/>
    </vehicle>
    <vehicle id="21" depart="1.05">
        <route edges="429080700#4 429080700#5 429080700#6 -429080700#6"/>
    </vehicle>
    <vehicle id="22" depart="1.10">
        <route edges="29118093#0 29118093#1 29118093#2 29118093#3 29118093#4 29118093#5 29118093#6 457886991 448790074 199898039 462138647 448790075 444126136 450175546 -427564714#1"/>
    </vehicle>
    <vehicle id="23" depart="1.15">
        <route edges="302857655#1 79173488#10 302857654 80912821#0 80912821#1 80912821#2 443365164 440187416#0 440187416#1 440187416#2 447250373 34374859 445080858 462282209 461510135 439904288 445080859#0 445080859#1 446269829#0 446269829#1 440881189#0 440881189#1 312565414#0 312565414#1 440881471#0 440881471#1 441997996 445078262"/>
    </vehicle>
    <vehicle id="24" depart="1.20">
        <route edges="-454300882 -45838050 440881189#0 440881189#1 312565414#0 -45838052#6 -45838052#5 -45838052#4 -45838052#3 -45838052#2 -45838052#1 -45838052#0 442016957#3 442016957#4 429011448#0 429011448#1 429011445#0 429011445#1 322620773#0 -322620773#0"/>
    </vehicle>
    <vehicle id="25" depart="1.25">
        <route edges="444126138 450175546 -427564714#1 428012644 443987645#2 443987646 448790076#1 448790076#2 444018069#0 444018069#1 40016147#0 40016147#1 448280094 40020605 443160016 440044937#0 440044937#1 439897796 439897795#0 439897795#1 447226543#0 -146688868#2 439901406#3 439902715"/>
    </vehicle>
    <vehicle id="26" depart="1.30">
        <route edges="-303475998#3 -303475998#2 -303475999 442232090#1 80912821#2 443365164 440187416#0 440187416#1 440187416#2 447250373 34374859 445080858 462282209 461510135 439904288 445080859#0 445080859#1 446269829#0 446269829#1 440881189#0 440881189#1 312565414#0 312565414#1 440881471#0 440881471#1 441997996 445078262 445078264 440881562#0 119029072 228124191 228124190 462138643 451041313 29118096 29165179"/>
    </vehicle>
    <vehicle id="27" depart="1.35">
        <route edges="444428461#0 -184740438#1 248282336#4 462131779 444433525#0 444433525#1 444433525#2 457176635 453717286 450926204 457884963 457886989 446148167 462138643 29141670#0 29141670#1 445014537#0 445014537#1 441997991#0 441997991#1 440774133 312565415#0 312565415#1 442010286 298344725 440062732#0 440062732#1 442016957#0 442016957#1 442016957#2 442016957#3 442016957#4 429011448#0 429011448#1"/>
    </vehicle>
    <vehicle id="29" depart="1.45">
        <route edges="445046639#1 328501145 232795047 445167431 443159490 443159494 443159486 442779564 232967184 328501144 450350861 444018070 445046647 232967181#0 232967181#1 232602656 449785730 443987641#0 443987641#1 445014537#0 445014537#1 27318112#0 27318112#1 -29141817"/>
    </vehicle>
    <vehicle id="30" depart="1.50">
        <route edges="440771222 440881632#0 440771233 440881629#3 -188246593 444149844 444232018#0 444232018#1 444232018#2 444232018#3 444232018#4 444232018#5 444232018#6 444232018#7 444232018#8 441997991#1 440774133 312565415#0 312565415#1 442010286 298344725 440062732#0 440062732#1 442016957#0 442016957#1 442016957#2 442016957#3 442016957#4 429011448#0 429011448#1 429011445#0 429011445#1 322620773#0 449785727#3"/>
    </vehicle>
    <vehicle id="31" depart="1.55">
        <route edges="429011430#1 -429011430#1 -429011430#0 429011429#2 429011429#3 440881187 440881189#0 440881189#1 312565414#0 312565414#1 440881471#0 440881471#1 441997996 445078262 445078264 440881562#0 440881562#1 446148172 334124302#0 334124302#1 334124302#2 440881629#0 440881629#1 248407684#1 248407684#2 442014420#0 442014420#1 456541503 440769433 440881635 456540544 440881636#0 440881636#1 440881636#2 449880708#3 248284670"/>
    </vehicle>
    <vehicle id="32" depart="1.60">
        <route edges="302857649#1 302857652 302857653#0 302857653#1 302857653#2 302857654 80912821#0 80912821#1 80912821#2 443365164 440187416#0 440187416#1 440187416#2 447250373 34374859 445080858 462282209 461510135 439904288 445080859#0 445080859#1 446269829#0 446269829#1 440881189#0 440881189#1 312565414#0 312565414#1 188246609 440881469#0 440881469#1 440881469#2 -440881469#2"/>
    </vehicle>
    <vehicle id="33" depart="1.65">
        <route edges="457885320#2 457885320#3 457885320#4 457885320#5 475301476 29118093#2 29118093#3 29118093#4 29118093#5 248407674#0 248407674#1 444232017#1 248407682 248407684#0 248407684#1 248407684#2 442014420#0 442014420#1 456541503 440881634#0 440881634#1 450614679 440897028#0 440897028#1 442232083 442087558#0 442087558#1 442087558#2 444351851 233810278 440769414 233810276 442232084"/>
    </vehicle>
    <vehicle id="34" depart="1.70">
        <route edges="444111346 444111347#1 444118069#1 444111345 459587614 459587615 451042486 233810277 440769410 233810275 442084732#0 442084732#1 442084733#0 442084733#1 146688871 440881562#0 119029072 228124191 228124190 462138643 451041313 29118096 457886988 450926204 27318126#0 27318126#1 27318126#2 27318126#3 457885320#0 457885320#1 457885320#2 457885320#3 457885320#4 457885320#5 475301476 29118093#2 406977632#0 406977633"/>
    </vehicle>
    <vehicle id="35" depart="1.75">
        <route edges="-89797645 89797645 255645805#1 444400943 194344119#0 194344119#1 194344119#2 442359395 442232081 334124305#0 334124305#1 334124305#2 440769442 450920619#0 450920619#1 440897034#0 440897034#1 248407685 248407677 457886991 448790074 199898039 462138646 444428461#0 444428461#1 444428461#2 444428461#3 29141057#2"/>
    </vehicle>
    <vehicle id="36" depart="1.80">
        <route edges="27318112#0 27318112#1 27318112#2 446148169 462138643 451041313 29118096 457886988 450926204 457884963 457886989 119029073 228124193 228124192 446148172 440881563 402932403#0 402932403#1 442084726"/>
    </vehicle>
    <vehicle id="37" depart="1.85">
        <route edges="-206608466#1 206608466#1 450920619#1 440897034#0 440897034#1 248407685 248407677 457886990 448781893#0 448781893#1 29141189#1 27318126#1 27318126#2 27318126#3 457885321 444232017#0"/>
    </vehicle>
    <vehicle id="38" depart="1.90">
        <route edges="-297891659#1 232602658#0 232602658#1 453717289#1 453717290 443987641#0 443987641#1 445014537#0 445014537#1 441997991#0 441997991#1 440774133 312565415#0 312565415#1 442010286 298344725 440062732#0 440062732#1 442016957#0 442016957#1 442016957#2 442016957#3 442016957#4 429011448#0 429011448#1 429011445#0 429011445#1 322620773#0"/>
    </vehicle>
    <vehicle id="39" depart="1.95">
        <route edges="449683612 118265811 118265817 447215985 440146106 240381910 442013841 442014415 442013842 454843354 440055729 454300889 454300892#0 454300892#1 454300892#2 445080100#0 445080100#1 445080100#2 445080100#3 445080100#4 445080100#5 440202873 439904288 445080859#0 439963244 440881186#2"/>
    </vehicle>
    <vehicle id="40" depart="2.00">
        <route edges="-429011430#0 429011429#2 429011429#3 440881187 440881189#0 440881189#1 312565414#0 312565414#1 440881471#0 440881471#1 441997996 445078262 445078264 440881562#0 440881562#1 446148172 334124302#0 334124302#1 334124302#2"/>
    </vehicle>
    <vehicle id="41" depart="2.05">
        <route edges="232967184 328501144 450350861 444018070 445046647 232967181#0 232967181#1 232602656 449785730 443987641#0 29141657#0 29141657#1 29118096 29165179 453717287 453717288 462138645#0 29165238#2 457176635 453717286"/>
    </vehicle>
    <vehicle id="42" depart="2.10">
        <route edges="-194334821 194334826#2 194334826#3 194334826#4 446269829#1 440881189#0 439963691 440881188#1 429011415#2 429011415#3 429011415#4 429011415#5 440041774 456766135 429011446 448284881#0 -456766136 -440042637 456766132#0 456766132#1 456766132#2 456766132#3 460737119 460737120 440038226 443178673#0 443178673#1 443178672#0 440041773#0"/>
    </vehicle>
    <vehicle id="43" depart="2.15">
        <route edges="448790072 248407678 444126145 248407676 448781893#0 448781893#1 448781893#2 457886989 446148167 462138643 29141670#0 29141670#1 445014537#0 445014537#1 441997991#0 441997991#1 440774133 312565415#0 312565415#1 442010286 298344725 440062732#0 440062732#1 -442016955 -440881469#3 440881469#3"/>
    </vehicle>
    <vehicle id="44" depart="2.20">
        <route edges="-429080721 -429080720#1 -429080720#0 439897795#0 439897795#1 439897795#2 439897795#3 440881184#0 440881184#1 440881185#0 445080859#0 445080859#1 446269829#0 446269829#1 440881189#0 440881189#1 312565414#0 312565414#1 440881471#0 440881471#1 441997996 445078262 445078264 440881562#0 440881562#1 446148172 440881563 402932403#0 402932403#1 442084725#0 442084725#1"/>
    </vehicle>
    <vehicle id="45" depart="2.25">
        <route edges="439902329#2 -146688868#3 447226543#1 447226543#2 447226543#3 447226543#4 447226543#5 429011416 447226544 456766135 429011446 448284881#0 -456766136 456766133#0 456766133#1 118265791 443159490 443159494 443159486 442779564 232967184 328501144 450350861 444018070 445046647 232967181#0 232967181#1 232602656 449785730 443987641#0 29141657#0 29141657#1 29118096 457886988 450926204 27318126#0 27318126#1 27318126#2 444126147 448781893#0 448781893#1"/>
    </vehicle>
    <vehicle id="46" depart="2.30">
        <route edges="447226543#3 447226543#4 447226543#5 429011416 447226544 456766135 429011446 448284881#0 -456766136 456766133#0 456766133#1 118265791 443159490 443159494 443159486 232795048 232795046 448282334 40020609 444014977#0 444014977#1 443987645#0 443987645#1 443987645#2 443987646 448790076#1 448790076#2 444018069#0 444018069#1 40016147#0"/>
    </vehicle>
    <vehicle id="47" depart="2.35">
        <route edges="-303475992 -302857662#0 79173488#6 79173488#7 79173488#8 79173488#9 79173488#10 302857654 80912821#0 80912821#1 80912821#2 443365164 440187416#0 440187416#1 440187416#2 447250373 34374859 445080858 462282209 461510135 439904288 445080859#0 445080859#1 446269829#0 446269829#1 440881189#0 440881189#1 312565414#0 312565414#1 440881471#0 440881471#1 441997996 445078262 445078264 440881562#0 440881562#1 446148172 334124302#0 334124302#1 334124302#2 440881629#0 440897034#1 248407685 248407677 457886991 448790074 199898039 462138647 448790075 444126136"/>
    </vehicle>
    <vehicle id="48" depart="2.40">
        <route edges="448786345 448781893#1 29141189#1 27318126#1 27318126#2 27318126#3 457885321 444232017#0 444232017#1 248407682 248407684#0 248407684#1 248407684#2 442014420#0 442014420#1 456541503 440769433 440881635 456540544 440881636#0 440881636#1 440881636#2 449880708#3 248284670 458699294#0"/>
    </vehicle>
    <vehicle id="49" depart="2.45">
        <route edges="444422640#1 444422640#2 29118093#1 29118093#2 29118093#3 29118093#4 29118093#5 248407674#0 248407674#1 444232017#1 248407682 248407684#0 248407684#1 442014419#1 440897382#0 440897382#1 440897382#2 440897383 194345865 445078265 442016277 441997997 441997995#0 441997995#1 441997995#2 441997995#3 441997995#4 441997995#5 454300889 454300892#0 454300892#1 454300892#2 445080100#0 445080100#1 445080100#2 445080100#3 445080100#4 445080100#5 440202873"/>
    </vehicle>
    <vehicle id="50" depart="2.50">
        <route edges="445078261#0 445078261#1 442016278 458080382 442016279#0 442016279#1 194345864"/>
    </vehicle>
    <vehicle id="51" depart="2.55">
        <route edges="445014534 232796360#0 232602654 232967181#1 232602656 449785730 443987641#0 29141657#0 29141657#1 29118096 29165179 453717287 453717288 462138645#0 462138645#1 462138645#2 444418076#1"/>
    </vehicle>
    <vehicle id="52" depart="2.60">
        <route edges="29118093#1 29118093#2 29118093#3 29118093#4 29118093#5 444126149 457885320#1 457885320#2 457885320#3 457885320#4 457885320#5 444422734 248282332#3 449070495 444428463#0 444428463#1"/>
    </vehicle>
    <vehicle id="53" depart="2.65">
        <route edges="102596674 80912591#0 449070496 248282336#0 248282336#1 248282336#2 248282336#3 248282336#4 462131778#0 462131778#1 457885321 444232017#0 444232017#1 248407682 248407684#0 248407684#1 248407684#2 442014420#0 442014420#1 456541503 440769433 440881635 456540544 440881636#0 440881636#1 440881636#2 449880708#3 248284670 458699294#0 458699294#1 248284666"/>
    </vehicle>
    <vehicle id="54" depart="2.70">
        <route edges="448790073#2 29118093#5 248407674#0 248407674#1 444232017#1 248407682 248407684#0 248407684#1 442014419#1 440897382#0 440897382#1 440897382#2 440897383 194345865 445078265 442016277 441997997 441997995#0 441997995#1 441997995#2 441997995#3 441997995#4 429011415#1 429011415#2 429011415#3 429011415#4 429011415#5 440041774 456766135 429011446 448284881#0 -456766136 -440042637 456766132#0 322629114 429080720#3"/>
    </vehicle>
    <vehicle id="55" depart="2.75">
        <route edges="429011422#1 -429011422#1 -429011422#0 -429011420#4 -429011420#3 -429011420#2 -429011420#1 447226543#5 429011416 447226544 456766135 429011446 448284881#0 -456766136 456766133#0 440042584 118265810#1 440037195 449785723#0 449785723#1 429011447 449785726 429011445#0 429011445#1 429011445#2 429011445#3 322629006#0"/>
    </vehicle>
    <vehicle id="56" depart="2.80">
        <route edges="374048528 79182771#1 442232085#0 79174943 449860494#0 89797645 255645805#1 444400943 194344119#0 194344119#1 194344119#2 442359395 442232081 334124305#0 334124305#1 334124305#2 440769442 450920619#0 450920619#1 440897034#0 440897034#1 248407685 248407677 457886991 448790074 199898039 462138647 448790075 450920620 453294516#0 453294516#1 453294516#2 444014979#0 444014979#1 443987647 199896075#0 199896075#1 199896075#2 -199898702 199898702"/>
    </vehicle>
    <vehicle id="57" depart="2.85">
        <route edges="444351506 458714677 442232090#0 442232090#1 80912821#2 443365164 440187416#0 440187416#1 440187416#2 447250373 34374859 445080858 462282209 461510135 439904288 445080859#0 445080859#1 446269829#0 446269829#1 440881189#0 440881189#1 312565414#0 312565414#1 440881471#0 440881471#1 441997996 445078262 445078264 440881562#0 440881562#1 446148172 334124302#0 334124302#1 334124302#2 440881629#0 440771220 440881630 440881631 444232018#1 243319591"/>
    </vehicle>
    <vehicle id="58" depart="2.90">
        <route edges="-429011436#0 -429011429#2 429011430#0 429011430#1 -429011433#1"/>
    </vehicle>
    <vehicle id="60" depart="3.00">
        <route edges="445014536#0 445014536#1 248282334#0 248282334#1 248282334#2 462138645#0 29165238#2 457176635 453717285"/>
    </vehicle>
    <vehicle id="61" depart="3.05">
        <route edges="-45838052#3 45838052#3 45838052#4 89797647 454843354 447215986 442014416 447215987#0 447215987#1 440057978 461504894#2 459592474 444119992 459587614 459587615 440765420#0 440765420#1 374048528 79182771#1"/>
    </vehicle>
    <vehicle id="62" depart="3.10">
        <route edges="-439963395 445080100#4 445080100#5 440202873 439904288 445080859#0 445080859#1 446269829#0 446269829#1 45838050 454300892#0 454300892#1 454300892#2 445080100#0 445080100#1"/>
    </vehicle>
    <vehicle id="63" depart="3.15">
        <route edges="-29142233 448781893#1 29141189#1 27318126#1 27318126#2 27318126#3 457885321 444232017#0 444232017#1 248407682 248407684#0 248407684#1 248407684#2 442014420#0 442014420#1 456541503 440881634#0 440881634#1"/>
    </vehicle>
    <vehicle id="64" depart="3.20">
        <route edges="-429011430#7 429011430#7 429011430#8 -429011430#2 -429011430#1 -429011430#0 429011429#2 429011429#3 440881187 440881189#0 440881189#1 442014416 447215987#0 444111347#0 444111347#1 -444118069#0 -444118070"/>
    </vehicle>
    <vehicle id="65" depart="3.25">
        <route edges="445080099#5 447215990#0 447215990#1 439900144 444351850#0 444351850#1 442359393#0 442359393#1 194344108#0 194344108#1 440057977 460360352#2 460360352#3 460360352#4 429011415#0 429011415#1 429011415#2 429011415#3 429011415#4 429011415#5 440041774 456766135 429011446 448284881#0 -456766136 -440042637 456766132#0 456766132#1 456766132#2 456766132#3 460737119 460737120"/>
    </vehicle>
    <vehicle id="66" depart="3.30">
        <route edges="45838052#4 89797647 454843354 440055729 454300889 454300892#0 454300892#1 454300892#2 445080100#0 445080100#1 445080100#2 445080100#3 445080100#4 445080100#5 440202873 439976643 461510136"/>
    </vehicle>
    <vehicle id="67" depart="3.35">
        <route edges="442779565 445167430 118265810#0 118265810#1 440037194 447215985 440146106 240381910 442013841 442014415 442013842 454843354 447215986 312565414#0 312565414#1 440881471#0 440881471#1 441997996 445078262 445078264 440881562#0 440881562#1 446148172 334124302#0 334124302#1 334124302#2 440881629#0 440881629#1 440881629#2 440881629#3 440881629#4 440881629#5 442014417 458696110#0 458696110#1 184738717"/>
    </vehicle>
    <vehicle id="68" depart="3.40">
        <route edges="-322629006#0 429011445#4 312565418 440062732#0 440062732#1 442016957#0 442016957#1 442016957#2 45838052#0 45838052#1 45838052#2 45838052#3 45838052#4 45838052#5 45838052#6 312565414#1 440881471#0 440881471#1 441997996 445078262 445078264 440881562#0 440881562#1 446148172 440881563 402932403#0 402932403#1 442084725#0 442084725#1 442084725#2 442232081 442087559 233809682 233809679#0"/>
    </vehicle>
    <vehicle id="69" depart="3.45">
        <route edges="312565415#0 312565415#1 442010286 298344725 440062732#0 440062732#1 442016957#0 442016957#1 442016957#2 442016957#3 442016957#4 264409075 240381910 442013841 442014415 442013842 454843354 440055729 454300889 454300892#0 454300892#1 454300892#2 445080100#0 445080100#1 445080100#2 445080100#3 445080100#4 445080100#5 440202873 439904288 445080859#0 439963244 440881186#2"/>
    </vehicle>
    <vehicle id="70" depart="3.50">
        <route edges="445014536#1 445014536#2 453717290 443987641#0 443987641#1 445014537#0 445014537#1 441997991#0 441997991#1 440774133 312565415#0 312565415#1 442010286 298344725 440062732#0 440062732#1 442016957#0 442016957#1 442016957#2 442016957#3 442016957#4 429011448#0 440063025 449785727#0 322620775#0 -322620775#0"/>
    </vehicle>
    <vehicle id="71" depart="3.55">
        <route edges="442232085#0 79174943 449860494#0 89797645 255645805#1 444400943 194344119#0 194344119#1 194344119#2 442084732#0 442084732#1 442084733#0 442084733#1 146688871 440881562#0 119029072 228124191 228124190 462138643 451041313 29118096 29165179 453717287 453717288 462138644#0 462138644#1 462138644#2 457886987 443987642 445014536#0 445014536#1 445014536#2"/>
    </vehicle>
    <vehicle id="72" depart="3.60">
        <route edges="27318112#5 -444418078 29141189#0 448781893#2 457886989 119029073 228124193 228124192 446148172 440881563 440897383 194345865 445078265 442016277 441997997 441997995#0 441997995#1 441997995#2 441997995#3 441997995#4 429011415#1 429011415#2 429011415#3 429011415#4 429011417#0 429011417#1 439901406#0 439901406#1 439901406#2 146688868#2"/>
    </vehicle>
    <vehicle id="73" depart="3.65">
        <route edges="429011415#1 429011415#2 429011429#0 429011429#1 429011429#2 429011429#3 440881187 440881189#0 440881189#1 312565414#0 312565414#1 440881471#0 440881471#1 441997996 445078262 445078264 440881562#0 440881562#1 446148172 440881563 402932403#0 402932403#1 442084725#0 206608466#0 206608466#1 -206608466#1"/>
    </vehicle>
    <vehicle id="74" depart="3.70">
        <route edges="440897780#1 440897781#0 34323862#1 440881184#0 440881184#1 440881185#0 445080859#0 445080859#1 446269829#0 446269829#1 440881189#0 440881189#1 312565414#0 312565414#1 440881471#0 440881471#1 441997996 445078262 445078263 445078265 442016277 441997997 441997995#0 441997995#1 45838048#0 -45838048#0"/>
    </vehicle>
    <vehicle id="75" depart="3.75">
        <route edges="-440771230#0 334124304 440897382#2 440897383 146688871 440881562#0 440881562#1 446148172 334124302#0 334124302#1 334124302#2 440881629#0 440881629#1 440881629#2 440881629#3 440881629#4 440881629#5 442014417 458696110#0 -455096004#2 -455096004#1 -455096004#0 455096004#0"/>
    </vehicle>
    <vehicle id="76" depart="3.80">
        <route edges="448781893#1 -29141189#0 444418078 27318112#6 27318112#7 27318112#8 27318112#9 448790072 448790073#0 444149841 444149842 27318117"/>
    </vehicle>
    <vehicle id="78" depart="3.90">
        <route edges="440897028#0 440897028#1 442232083 442087558#0 442087558#1 442087558#2 444351851 233810278 440769414 233810276 442141003 442232085#0 442232085#1 449862105 440765421 442232087 194344117 194344127 451041315 439900146#0 439900146#1 439900151 34374859 445080858 462282209 461510135 440897780#0 440897780#1 440897781#0 440897781#1 440897781#2 448947832 264037341 439902329#0 439902329#1"/>
    </vehicle>
    <vehicle id="79" depart="3.95">
        <route edges="440769428 440881636#1 440769417 194344114#1 440897026#0 440897026#1 440769437 440881635 456540544 440881636#0"/>
    </vehicle>
    <vehicle id="80" depart="4.00">
        <route edges="199896075#1 -427564712#1 -427564712#0 453033846#2 -427564710#3 -427564710#2 -427564710#1 -427564710#0 453040323 453294515 444126141 450614677 233525478 462131778#0 462131778#1 457885321 444232017#0 444232017#1 248407682 248407684#0 248407684#1"/>
    </vehicle>
    <vehicle id="81" depart="4.05">
        <route edges="303287747 442779562 450537289 439895644 440062731 440038226 443178673#0 443178673#1 443178672#0 440041773#0 322629023"/>
    </vehicle>
    <vehicle id="83" depart="4.15">
        <route edges="440881629#3 -188246593 444149844 444232018#0 444232018#1 444232018#2 444232018#3 444232018#4 444232018#5 248407680 248407681 248407675 444418077 29141189#0 448781893#2 457886989 446148167 462138643 451041313 29118096 29165179 453717287 453717288 462138644#0 462138644#1 462138644#2 457886987 445014534 232796360#0 232602654 232967181#1 232602656"/>
    </vehicle>
    <vehicle id="84" depart="4.20">
        <route edges="440042637 456766133#0 440042584 118265810#1 440037195 449785723#0 449785723#1 429011447 449785726 429011445#0 429011445#1 429011445#2 429011445#3 429011445#4 312565418 440062732#0 -359990752#1 440063026#1"/>
    </vehicle>
    <vehicle id="85" depart="4.25">
        <route edges="322620774#0 -322620774#0 429011445#1 429011445#2 429011445#3 429011445#4 298344724 449785728 232967182#0 232967182#1 449706509 449785730 443987641#0 29141657#0 29141657#1"/>
    </vehicle>
    <vehicle id="86" depart="4.30">
        <route edges="34323862#0 34323862#1 440881184#0 440881184#1 440881185#0 445080859#0 445080859#1 446269829#0 446269829#1 45838050 454300892#0 454300892#1 454300892#2 445080100#0 445080100#1 439963476 445080099#2"/>
    </vehicle>
    <vehicle id="88" depart="4.40">
        <route edges="457885321 444126144#0 444126144#1 444126146 444126145 448786344 448790074 199898039 462138647 444126143 448790076#0 448790076#1 448790076#2 444018069#0 444018069#1 40016147#0 40016147#1 40020604 118265794 445167431 443159490 443159494 443159486 232795048 232795046 448282334 40020609"/>
    </vehicle>
    <vehicle id="89" depart="4.45">
        <route edges="-429011430#1 -429011430#0 429011429#2 429011429#3 440881187 440881189#0 440881189#1 312565414#0 312565414#1 440881471#0 440881471#1 441997996 445078262 445078264 440881562#0 440881562#1 446148172 334124302#0 334124302#1 334124302#2 440881629#0 440881629#1 248407684#1 248407684#2 442014420#0 442014420#1 456541503 440769433 440881635 456540544 440881636#0 440881636#1 440769417 194344114#1"/>
    </vehicle>
    <vehicle id="90" depart="4.50">