<?xml version="1.0"?>
<!-- generated on 2017-02-22 12:39:03.740000 by $Id: randomTrips.py 18756 2015-08-31 19:16:33Z behrisch $
  options: -n input_net.net.xml -e 50 -p 0.05
-->
<trips>
    <trip id="0" depart="0.00" from="-302857656#1" to="-302857658#0" />
    <trip id="1" depart="0.05" from="440046811" to="89797643" />
    <trip id="2" depart="0.10" from="-429080700#2" to="118265810#1" />
    <trip id="3" depart="0.15" from="-429080715" to="248282336#1" />
    <trip id="4" depart="0.20" from="-188246593" to="233809682" />
    <trip id="5" depart="0.25" from="440044936#0" to="441997992" />
    <trip id="6" depart="0.30" from="441997991#1" to="248407685" />
    <trip id="7" depart="0.35" from="119029072" to="441997995#4" />
    <trip id="8" depart="0.40" from="312565415#1" to="439902715" />
    <trip id="9" depart="0.45" from="233525478" to="40016147#0" />
    <trip id="10" depart="0.50" from="29140830#2" to="403907823" />
    <trip id="11" depart="0.55" from="-440771230#1" to="322620773#2" />
    <trip id="12" depart="0.60" from="462332989" to="304755520" />
    <trip id="13" depart="0.65" from="444018067" to="232967182#0" />
    <trip id="14" depart="0.70" from="29118093#3" to="233525478" />
    <trip id="15" depart="0.75" from="-429080690" to="449862105" />
    <trip id="16" depart="0.80" from="-188248177" to="80912821#2" />
    <trip id="17" depart="0.85" from="429080720#0" to="-322628974" />
    <trip id="18" depart="0.90" from="439895975" to="444118071#0" />
    <trip id="19" depart="0.95" from="457886988" to="-80912589#0" />
    <trip id="20" depart="1.00" from="444422644" to="429011429#1" />
    <trip id="21" depart="1.05" from="429080700#4" to="-429080700#6" />
    <trip id="22" depart="1.10" from="29118093#0" to="-427564714#1" />
    <trip id="23" depart="1.15" from="302857655#1" to="445078262" />
    <trip id="24" depart="1.20" from="-454300882" to="-322620773#0" />
    <trip id="25" depart="1.25" from="444126138" to="439902715" />
    <trip id="26" depart="1.30" from="-303475998#3" to="29165179" />
    <trip id="27" depart="1.35" from="444428461#0" to="429011448#1" />
    <trip id="28" depart="1.40" from="27318112#2" to="79173488#3" />
    <trip id="29" depart="1.45" from="445046639#1" to="-29141817" />
    <trip id="30" depart="1.50" from="440771222" to="449785727#3" />
    <trip id="31" depart="1.55" from="429011430#1" to="248284670" />
    <trip id="32" depart="1.60" from="302857649#1" to="-440881469#2" />
    <trip id="33" depart="1.65" from="457885320#2" to="442232084" />
    <trip id="34" depart="1.70" from="444111346" to="406977633" />
    <trip id="35" depart="1.75" from="-89797645" to="29141057#2" />
    <trip id="36" depart="1.80" from="27318112#0" to="442084726" />
    <trip id="37" depart="1.85" from="-206608466#1" to="444232017#0" />
    <trip id="38" depart="1.90" from="-297891659#1" to="322620773#0" />
    <trip id="39" depart="1.95" from="449683612" to="440881186#2" />
    <trip id="40" depart="2.00" from="-429011430#0" to="334124302#2" />
    <trip id="41" depart="2.05" from="232967184" to="453717286" />
    <trip id="42" depart="2.10" from="-194334821" to="440041773#0" />
    <trip id="43" depart="2.15" from="448790072" to="440881469#3" />
    <trip id="44" depart="2.20" from="-429080721" to="442084725#1" />
    <trip id="45" depart="2.25" from="439902329#2" to="448781893#1" />
    <trip id="46" depart="2.30" from="447226543#3" to="40016147#0" />
    <trip id="47" depart="2.35" from="-303475992" to="444126136" />
    <trip id="48" depart="2.40" from="448786345" to="458699294#0" />
    <trip id="49" depart="2.45" from="444422640#1" to="440202873" />
    <trip id="50" depart="2.50" from="445078261#0" to="194345864" />
    <trip id="51" depart="2.55" from="445014534" to="444418076#1" />
    <trip id="52" depart="2.60" from="29118093#1" to="444428463#1" />
    <trip id="53" depart="2.65" from="102596674" to="248284666" />
    <trip id="54" depart="2.70" from="448790073#2" to="429080720#3" />
    <trip id="55" depart="2.75" from="429011422#1" to="322629006#0" />
    <trip id="56" depart="2.80" from="374048528" to="199898702" />
    <trip id="57" depart="2.85" from="444351506" to="243319591" />
    <trip id="58" depart="2.90" from="-429011436#0" to="-429011433#1" />
    <trip id="59" depart="2.95" from="264037343#2+397488070#2" to="-302857662#1" />
    <trip id="60" depart="3.00" from="445014536#0" to="453717285" />
    <trip id="61" depart="3.05" from="-45838052#3" to="79182771#1" />
    <trip id="62" depart="3.10" from="-439963395" to="445080100#1" />
    <trip id="63" depart="3.15" from="-29142233" to="440881634#1" />
    <trip id="64" depart="3.20" from="-429011430#7" to="-444118070" />
    <trip id="65" depart="3.25" from="445080099#5" to="460737120" />
    <trip id="66" depart="3.30" from="45838052#4" to="461510136" />
    <trip id="67" depart="3.35" from="442779565" to="184738717" />
    <trip id="68" depart="3.40" from="-322629006#0" to="233809679#0" />
    <trip id="69" depart="3.45" from="312565415#0" to="440881186#2" />
    <trip id="70" depart="3.50" from="445014536#1" to="-322620775#0" />
    <trip id="71" depart="3.55" from="442232085#0" to="445014536#2" />
    <trip id="72" depart="3.60" from="27318112#5" to="146688868#2" />
    <trip id="73" depart="3.65" from="429011415#1" to="-206608466#1" />
    <trip id="74" depart="3.70" from="440897780#1" to="-45838048#0" />
    <trip id="75" depart="3.75" from="-440771230#0" to="455096004#0" />
    <trip id="76" depart="3.80" from="448781893#1" to="27318117" />
    <trip id="77" depart="3.85" from="440881629#0" to="461505918#1" />
    <trip id="78" depart="3.90" from="440897028#0" to="439902329#1" />
    <trip id="79" depart="3.95" from="440769428" to="440881636#0" />
    <trip id="80" depart="4.00" from="199896075#1" to="248407684#1" />
    <trip id="81" depart="4.05" from="303287747" to="322629023" />
    <trip id="82" depart="4.10" from="450614678#0" to="334124305#1" />
    <trip id="83" depart="4.15" from="440881629#3" to="232602656" />
    <trip id="84" depart="4.20" from="440042637" to="440063026#1" />
    <trip id="85" depart="4.25" from="322620774#0" to="29141657#1" />
    <trip id="86" depart="4.30" from="34323862#0" to="445080099#2" />
    <trip id="87" depart="4.35" from="439901406#2" to="440897023#0" />
    <trip id="88" depart="4.40" from="457885321" to="40020609" />
    <trip id="89" depart="4.45" from="-429011430#1" to="194344114#1" />
    <trip id="90" depart="4.50" from="-303475994" to="29118093#1" />
    <trip id="91" depart="4.55" from="-302857648#0" to="421239334" />
    <trip id="92" depart="4.60" from="440057978" to="-427774912#0" />
    <trip id="93" depart="4.65" from="444351850#0" to="302857652" />
    <trip id="94" depart="4.70" from="429011417#0" to="304755520" />
    <trip id="95" depart="4.75" from="-449860494#0" to="444418080" />
    <trip id="96" depart="4.80" from="447215987#1" to="443987645#2" />
    <trip id="97" depart="4.85" from="440044936#3" to="232602663#1" />
    <trip id="98" depart="4.90" from="445046639#1" to="40016187#1" />
    <trip id="99" depart="4.95" from="427564710#2" to="-29140830#1" />
    <trip id="100" depart="5.00" from="-303040912" to="446148169" />
    <trip id="101" depart="5.05" from="448781893#2" to="248407675" />
    <trip id="102" depart="5.10" from="456766132#3" to="439905478#1" />
    <trip id="103" depart="5.15" from="449706509" to="458696110#1" />
    <trip id="104" depart="5.20" from="429011429#2" to="302857656#0" />
    <trip id="105" depart="5.25" from="442016957#1" to="27318112#8" />
    <trip id="106" depart="5.30" from="439895644" to="440897023#1" />
    <trip id="107" depart="5.35" from="429080724" to="445046647" />
    <trip id="108" depart="5.40" from="450350861" to="27318112#1" />
    <trip id="109" depart="5.45" from="-80912580" to="440771226" />
    <trip id="110" depart="5.50" from="450614676" to="-442016955" />
    <trip id="111" depart="5.55" from="444014978" to="89797647" />
    <trip id="112" depart="5.60" from="-455105562#0" to="183525918#1" />
    <trip id="113" depart="5.65" from="453717288" to="304755520" />
    <trip id="114" depart="5.70" from="-322629006#0" to="429011433#1" />
    <trip id="115" depart="5.75" from="-146688870#1" to="458696110#0" />
    <trip id="116" depart="5.80" from="-184740438#1" to="439976645" />
    <trip id="117" depart="5.85" from="-146688870#1" to="233810275" />
    <trip id="118" depart="5.90" from="440774132" to="-302857662#0" />
    <trip id="119" depart="5.95" from="29141189#1" to="302857657#0" />
    <trip id="120" depart="6.00" from="199898038#1" to="79173488#5" />
    <trip id="121" depart="6.05" from="444418076#2" to="439963395" />
    <trip id="122" depart="6.10" from="457886987" to="232602658#1" />
    <trip id="123" depart="6.15" from="443987647" to="443178672#0" />
    <trip id="124" depart="6.20" from="247429030#1" to="199896076" />
    <trip id="125" depart="6.25" from="457886990" to="232796360#0" />
    <trip id="126" depart="6.30" from="429011420#1" to="29118096" />
    <trip id="127" depart="6.35" from="442016957#0" to="461504895" />
    <trip id="128" depart="6.40" from="443987649" to="439963477" />
    <trip id="129" depart="6.45" from="440881186#2" to="442779562" />
    <trip id="130" depart="6.50" from="146688868#1" to="-248407683" />
    <trip id="131" depart="6.55" from="27318126#3" to="-454300885#1" />
    <trip id="132" depart="6.60" from="429080700#4" to="184738717" />
    <trip id="133" depart="6.65" from="248283748" to="440897028#0" />
    <trip id="134" depart="6.70" from="444422638#0" to="462138645#3" />
    <trip id="135" depart="6.75" from="27318126#3" to="439902716" />
    <trip id="136" depart="6.80" from="233932486" to="303719967#0" />
    <trip id="137" depart="6.85" from="442016956#4" to="440881629#5" />
    <trip id="138" depart="6.90" from="440881185#1" to="-232602663#0" />
    <trip id="139" depart="6.95" from="439905478#0" to="462131778#1" />
    <trip id="140" depart="7.00" from="439897795#0" to="458084591#1" />
    <trip id="141" depart="7.05" from="248407680" to="460360345#4" />
    <trip id="142" depart="7.10" from="444018070" to="-429011430#6" />
    <trip id="143" depart="7.15" from="442016279#1" to="415259672#0" />
    <trip id="144" depart="7.20" from="429080702#0" to="228123844" />
    <trip id="145" depart="7.25" from="444232018#4" to="248407684#2" />
    <trip id="146" depart="7.30" from="-303719973" to="440769435" />
    <trip id="147" depart="7.35" from="440881188#1" to="447215987#1" />
    <trip id="148" depart="7.40" from="460360345#0" to="-429011436#1" />
    <trip id="149" depart="7.45" from="-440771230#1" to="445080100#5" />
    <trip id="150" depart="7.50" from="233810276" to="444126136" />
    <trip id="151" depart="7.55" from="248407684#1" to="429011430#5" />
    <trip id="152" depart="7.60" from="462138645#0" to="27318126#1" />
    <trip id="153" depart="7.65" from="118265810#1" to="184827120#1" />
    <trip id="154" depart="7.70" from="451041313" to="443159486" />
    <trip id="155" depart="7.75" from="248282332#1" to="264037343#1+397488070#1" />
    <trip id="156" depart="7.80" from="439900151" to="439897795#2" />
    <trip id="157" depart="7.85" from="444111344" to="232602662" />
    <trip id="158" depart="7.90" from="-322620773#2" to="461505918#1" />
    <trip id="159" depart="7.95" from="444232018#3" to="441997996" />
    <trip id="160" depart="8.00" from="-89797645" to="444418077" />
    <trip id="161" depart="8.05" from="442779564" to="298344725" />
    <trip id="162" depart="8.10" from="-29140969#2" to="199896075#2" />
    <trip id="163" depart="8.15" from="232967182#0" to="-429080690" />
    <trip id="164" depart="8.20" from="232602654" to="-429011441#2" />
    <trip id="165" depart="8.25" from="427774900#1" to="146688871" />
    <trip id="166" depart="8.30" from="439965069#1" to="224732387" />
    <trip id="167" depart="8.35" from="442232087" to="448790076#0" />
    <trip id="168" depart="8.40" from="443159490" to="439900146#0" />
    <trip id="169" depart="8.45" from="445167429#1" to="-429080702#2" />
    <trip id="170" depart="8.50" from="442232089#0" to="-429080720#1" />
    <trip id="171" depart="8.55" from="439900151" to="439902329#2" />
    <trip id="172" depart="8.60" from="248407675" to="455096004#0" />
    <trip id="173" depart="8.65" from="462138646" to="-146688868#0" />
    <trip id="174" depart="8.70" from="194344108#0" to="444232018#5" />
    <trip id="175" depart="8.75" from="439900143" to="440881630" />
    <trip id="176" depart="8.80" from="199898411" to="359990752#1" />
    <trip id="177" depart="8.85" from="445167431" to="-428012633" />
    <trip id="178" depart="8.90" from="440771220" to="439963476" />
    <trip id="179" depart="8.95" from="442879332#0" to="183525918#1" />
    <trip id="180" depart="9.00" from="89797643" to="440042584" />
    <trip id="181" depart="9.05" from="443987648#0" to="440774131" />
    <trip id="182" depart="9.10" from="444400943" to="40016187#1" />
    <trip id="183" depart="9.15" from="442084733#0" to="429011425" />
    <trip id="184" depart="9.20" from="457885320#4" to="27318112#9" />
    <trip id="185" depart="9.25" from="415259672#0" to="440881634#0" />
    <trip id="186" depart="9.30" from="459587614" to="442359395" />
    <trip id="187" depart="9.35" from="-429011441#3" to="-439965012" />
    <trip id="188" depart="9.40" from="439905477" to="224732387" />
    <trip id="189" depart="9.45" from="440057978" to="199896074#2" />
    <trip id="190" depart="9.50" from="-199898411" to="462138647" />
    <trip id="191" depart="9.55" from="-45838048#0" to="439902329#7" />
    <trip id="192" depart="9.60" from="440040594" to="444014977#0" />
    <trip id="193" depart="9.65" from="40020600#0" to="79173488#4" />
    <trip id="194" depart="9.70" from="-429080702#3" to="322629017#1" />
    <trip id="195" depart="9.75" from="444422638#2" to="443160016" />
    <trip id="196" depart="9.80" from="441997995#3" to="442232088" />
    <trip id="197" depart="9.85" from="194339716" to="-440881469#1" />
    <trip id="198" depart="9.90" from="442232087" to="29141670#0" />
    <trip id="199" depart="9.95" from="232967180" to="27318112#3" />
    <trip id="200" depart="10.00" from="102596674" to="303719968" />
    <trip id="201" depart="10.05" from="40016187#0" to="-206608466#1" />
    <trip id="202" depart="10.10" from="248407678" to="442016957#4" />
    <trip id="203" depart="10.15" from="-232602658#1" to="322620775#2" />
    <trip id="204" depart="10.20" from="302857656#0" to="442232090#0" />
    <trip id="205" depart="10.25" from="-303475998#1" to="-428012633" />
    <trip id="206" depart="10.30" from="-427564710#1" to="429080700#2" />
    <trip id="207" depart="10.35" from="232967182#0" to="440039576#0" />
    <trip id="208" depart="10.40" from="439902715" to="441997995#1" />
    <trip id="209" depart="10.45" from="-446269827#1" to="199898039" />
    <trip id="210" depart="10.50" from="444232018#3" to="440881469#1" />
    <trip id="211" depart="10.55" from="440044937#1" to="461505918#1" />
    <trip id="212" depart="10.60" from="454300882" to="447215986" />
    <trip id="213" depart="10.65" from="429080702#3" to="439900144" />
    <trip id="214" depart="10.70" from="255645805#0" to="-29142233" />
    <trip id="215" depart="10.75" from="444014974#0" to="444114356" />
    <trip id="216" depart="10.80" from="460737120" to="439902329#7" />
    <trip id="217" depart="10.85" from="444428461#0" to="415259688" />
    <trip id="218" depart="10.90" from="-421239334" to="228123843" />
    <trip id="219" depart="10.95" from="-302857656#4" to="440881629#2" />
    <trip id="220" depart="11.00" from="442141003" to="-429080700#6" />
    <trip id="221" depart="11.05" from="442016956#1" to="443159486" />
    <trip id="222" depart="11.10" from="440039576#0" to="462138645#3" />
    <trip id="223" depart="11.15" from="443178672#0" to="428012644" />
    <trip id="224" depart="11.20" from="-80912578#0" to="447215989#0" />
    <trip id="225" depart="11.25" from="228124191" to="250274117#2" />
    <trip id="226" depart="11.30" from="232796360#0" to="248282336#1" />
    <trip id="227" depart="11.35" from="439902329#5" to="-429011433#0" />
    <trip id="228" depart="11.40" from="-29142233" to="440771220" />
    <trip id="229" depart="11.45" from="440040589" to="194344119#1" />
    <trip id="230" depart="11.50" from="429011429#1" to="445014537#1" />
    <trip id="231" depart="11.55" from="-206608466#1" to="457885320#5" />
    <trip id="232" depart="11.60" from="439895975" to="89797642" />
    <trip id="233" depart="11.65" from="27318174#1" to="439902329#6" />
    <trip id="234" depart="11.70" from="443178673#0" to="184827126" />
    <trip id="235" depart="11.75" from="439895969#0" to="-455096004#0" />
    <trip id="236" depart="11.80" from="-303719971" to="-29141189#1" />
    <trip id="237" depart="11.85" from="322629017#0" to="429080700#0" />
    <trip id="238" depart="11.90" from="194334820#5" to="27318112#5" />
    <trip id="239" depart="11.95" from="429080720#0" to="29141189#0" />
    <trip id="240" depart="12.00" from="440897781#2" to="-429080721" />
    <trip id="241" depart="12.05" from="450350861" to="-232602663#1" />
    <trip id="242" depart="12.10" from="302857656#0" to="29140830#2" />
    <trip id="243" depart="12.15" from="-303475992" to="-427564714#1" />
    <trip id="244" depart="12.20" from="444126138" to="-302857656#1" />
    <trip id="245" depart="12.25" from="429011434" to="440769426" />
    <trip id="246" depart="12.30" from="-429080725" to="-199896074#0" />
    <trip id="247" depart="12.35" from="440187222" to="443365165" />
    <trip id="248" depart="12.40" from="-449860494#1" to="443987648#1" />
    <trip id="249" depart="12.45" from="439902328#1" to="444114356" />
    <trip id="250" depart="12.50" from="442014419#1" to="194344108#2" />
    <trip id="251" depart="12.55" from="443987645#2" to="206608466#0" />
    <trip id="252" depart="12.60" from="449785723#0" to="248407685" />
    <trip id="253" depart="12.65" from="29140830#1" to="444418077" />
    <trip id="254" depart="12.70" from="199896075#1" to="-322629017#0" />
    <trip id="255" depart="12.75" from="449860493" to="-429080724" />
    <trip id="256" depart="12.80" from="456382186#1" to="447215987#8" />
    <trip id="257" depart="12.85" from="-440881469#1" to="89797643" />
    <trip id="258" depart="12.90" from="456766136" to="440897028#1" />
    <trip id="259" depart="12.95" from="-184740438#1" to="322620775#2" />
    <trip id="260" depart="13.00" from="439902329#2" to="322620775#1" />
    <trip id="261" depart="13.05" from="444232018#1" to="228124191" />
    <trip id="262" depart="13.10" from="449860494#1" to="194334820#4" />
    <trip id="263" depart="13.15" from="45838052#3" to="79173488#2" />
    <trip id="264" depart="13.20" from="-322620777" to="451041314#1" />
    <trip id="265" depart="13.25" from="-303475998#1" to="429080721" />
    <trip id="266" depart="13.30" from="-429011430#6" to="146688868#1" />
    <trip id="267" depart="13.35" from="440187415" to="146688868#3" />
    <trip id="268" depart="13.40" from="439905478#0" to="40016187#0" />
    <trip id="269" depart="13.45" from="79173488#9" to="446269827#3" />
    <trip id="270" depart="13.50" from="458714677" to="40033626" />
    <trip id="271" depart="13.55" from="415259675" to="445167429#1" />
    <trip id="272" depart="13.60" from="-427564710#3" to="233337679" />
    <trip id="273" depart="13.65" from="194334820#4" to="440771237" />
    <trip id="274" depart="13.70" from="462138645#0" to="440881632#0" />
    <trip id="275" depart="13.75" from="302857653#0" to="430038912" />
    <trip id="276" depart="13.80" from="444243642#1" to="-194334826#0" />
    <trip id="277" depart="13.85" from="444014977#0" to="453033846#1" />
    <trip id="278" depart="13.90" from="429011441#0" to="-359990752#1" />
    <trip id="279" depart="13.95" from="-406977632#1" to="-440881469#0" />
    <trip id="280" depart="14.00" from="444422638#0" to="29165238#0" />
    <trip id="281" depart="14.05" from="-429080702#1" to="-429011441#1" />
    <trip id="282" depart="14.10" from="462138644#1" to="-421238583" />
    <trip id="283" depart="14.15" from="322628961#0" to="439963396" />
    <trip id="284" depart="14.20" from="442779563" to="194339709#1" />
    <trip id="285" depart="14.25" from="459592473#1" to="441997995#2" />
    <trip id="286" depart="14.30" from="-302857659" to="118265810#0" />
    <trip id="287" depart="14.35" from="429080716" to="-322620775#0" />
    <trip id="288" depart="14.40" from="442084732#1" to="440044936#1" />
    <trip id="289" depart="14.45" from="248284676" to="439963396" />
    <trip id="290" depart="14.50" from="319804288" to="429011429#2" />
    <trip id="291" depart="14.55" from="440769424" to="29118093#3" />
    <trip id="292" depart="14.60" from="184740438#1" to="447252392" />
    <trip id="293" depart="14.65" from="-29141817" to="444422638#0" />
    <trip id="294" depart="14.70" from="429011415#3" to="443987645#0" />
    <trip id="295" depart="14.75" from="440187416#0" to="460351832" />
    <trip id="296" depart="14.80" from="440774133" to="446269827#3" />
    <trip id="297" depart="14.85" from="448786345" to="456382186#1" />
    <trip id="298" depart="14.90" from="456766132#3" to="228123844" />
    <trip id="299" depart="14.95" from="224934251#1" to="442016957#2" />
    <trip id="300" depart="15.00" from="448790076#1" to="429011415#0" />
    <trip id="301" depart="15.05" from="440062732#0" to="-306349107#0" />
    <trip id="302" depart="15.10" from="439902328#1" to="445178978" />
    <trip id="303" depart="15.15" from="328501144" to="444422638#0" />
    <trip id="304" depart="15.20" from="429011430#0" to="441997995#1" />
    <trip id="305" depart="15.25" from="441997996" to="442084727#0" />
    <trip id="306" depart="15.30" from="456384921" to="303475997" />
    <trip id="307" depart="15.35" from="451042486" to="-456766136" />
    <trip id="308" depart="15.40" from="457900649" to="444126149" />
    <trip id="309" depart="15.45" from="233809679#0" to="429011436#0" />
    <trip id="310" depart="15.50" from="-429080715" to="79173488#7" />
    <trip id="311" depart="15.55" from="-306349392" to="322620774#0" />
    <trip id="312" depart="15.60" from="448786344" to="440897030#1" />
    <trip id="313" depart="15.65" from="440057978" to="439897795#2" />
    <trip id="314" depart="15.70" from="442016279#1" to="184740438#0" />
    <trip id="315" depart="15.75" from="248407677" to="444018069#0" />
    <trip id="316" depart="15.80" from="445080100#1" to="118265811" />
    <trip id="317" depart="15.85" from="428012640" to="248282336#3" />
    <trip id="318" depart="15.90" from="89797646" to="443178673#1" />
    <trip id="319" depart="15.95" from="-440771230#1" to="440897030#0" />
    <trip id="320" depart="16.00" from="-444418078" to="-446269827#1" />
    <trip id="321" depart="16.05" from="429011422#0" to="-429011436#1" />
    <trip id="322" depart="16.10" from="429011448#1" to="475301476" />
    <trip id="323" depart="16.15" from="448284881#1" to="248407684#1" />
    <trip id="324" depart="16.20" from="444418079" to="439900144" />
    <trip id="325" depart="16.25" from="-29140969#2" to="443987641#0" />
    <trip id="326" depart="16.30" from="440881631" to="442016281" />
    <trip id="327" depart="16.35" from="439897796" to="440881629#0" />
    <trip id="328" depart="16.40" from="-303719967#0" to="322629017#1" />
    <trip id="329" depart="16.45" from="80912591#0" to="-29140830#2" />
    <trip id="330" depart="16.50" from="-45838052#4" to="444232018#1" />
    <trip id="331" depart="16.55" from="440881187" to="458699294#1" />
    <trip id="332" depart="16.60" from="439905478#0" to="442016957#2" />
    <trip id="333" depart="16.65" from="-429080702#1" to="184738717" />
    <trip id="334" depart="16.70" from="442016957#4" to="440039576#1" />
    <trip id="335" depart="16.75" from="442013840" to="448781893#2" />
    <trip id="336" depart="16.80" from="40020605" to="445014536#1" />
    <trip id="337" depart="16.85" from="-303040912" to="199898039" />
    <trip id="338" depart="16.90" from="-439963395" to="-428012641" />
    <trip id="339" depart="16.95" from="449785723#0" to="40016211" />
    <trip id="340" depart="17.00" from="442232083" to="450537289" />
    <trip id="341" depart="17.05" from="444126149" to="194334821" />
    <trip id="342" depart="17.10" from="-429011433#1" to="-359990752#0" />
    <trip id="343" depart="17.15" from="442087558#2" to="80912580" />
    <trip id="344" depart="17.20" from="224934251#1" to="-453033846#1" />
    <trip id="345" depart="17.25" from="443981914" to="440765421" />
    <trip id="346" depart="17.30" from="442232086" to="440057979" />
    <trip id="347" depart="17.35" from="232602810" to="429011415#3" />
    <trip id="348" depart="17.40" from="440062732#1" to="444111347#1" />
    <trip id="349" depart="17.45" from="-446269825" to="456541503" />
    <trip id="350" depart="17.50" from="232602654" to="248407681" />
    <trip id="351" depart="17.55" from="45838052#5" to="-429080700#0" />
    <trip id="352" depart="17.60" from="-29141817" to="-429011422#0" />
    <trip id="353" depart="17.65" from="440881184#1" to="40020600#1" />
    <trip id="354" depart="17.70" from="-302857650#1" to="459592473#1" />
    <trip id="355" depart="17.75" from="29141094" to="462332989" />
    <trip id="356" depart="17.80" from="29140969#0" to="448790073#1" />
    <trip id="357" depart="17.85" from="-429080700#5" to="-29141189#1" />
    <trip id="358" depart="17.90" from="444014975#0" to="-80912589#0" />
    <trip id="359" depart="17.95" from="-302857656#2" to="-194339709#0" />
    <trip id="360" depart="18.00" from="429011445#0" to="34374860" />
    <trip id="361" depart="18.05" from="-304755520" to="232967193" />
    <trip id="362" depart="18.10" from="439965069#0" to="440769428" />
    <trip id="363" depart="18.15" from="439895978#1" to="445080099#5" />
    <trip id="364" depart="18.20" from="443346645" to="462131778#0" />
    <trip id="365" depart="18.25" from="-429011430#3" to="440187406" />
    <trip id="366" depart="18.30" from="460360345#1" to="-188246609" />
    <trip id="367" depart="18.35" from="444014975#1" to="322620773#1" />
    <trip id="368" depart="18.40" from="228124191" to="194344108#2" />
    <trip id="369" depart="18.45" from="-194334826#4" to="440881188#1" />
    <trip id="370" depart="18.50" from="440769422" to="199896075#3" />
    <trip id="371" depart="18.55" from="248284670" to="440041774" />
    <trip id="372" depart="18.60" from="429011420#4" to="40020609" />
    <trip id="373" depart="18.65" from="449785726" to="-89797649" />
    <trip id="374" depart="18.70" from="-439902715" to="461272795" />
    <trip id="375" depart="18.75" from="429011422#0" to="440040594" />
    <trip id="376" depart="18.80" from="-322620777" to="232967187" />
    <trip id="377" depart="18.85" from="194344119#1" to="79173488#4" />
    <trip id="378" depart="18.90" from="415259680" to="429011436#0" />
    <trip id="379" depart="18.95" from="442232090#1" to="302857658#1" />
    <trip id="380" depart="19.00" from="440769428" to="-302857656#1" />
    <trip id="381" depart="19.05" from="442016957#4" to="444014979#2" />
    <trip id="382" depart="19.10" from="442084730#1" to="-45838052#1" />
    <trip id="383" depart="19.15" from="446269830#0" to="457886989" />
    <trip id="384" depart="19.20" from="-427774913#0" to="462138645#1" />
    <trip id="385" depart="19.25" from="429080720#1" to="29118093#4" />
    <trip id="386" depart="19.30" from="439902329#5" to="459592473#0" />
    <trip id="387" depart="19.35" from="440044936#0" to="444428465#1" />
    <trip id="388" depart="19.40" from="460360345#2" to="80912580" />
    <trip id="389" depart="19.45" from="462131778#1" to="446269827#2" />
    <trip id="390" depart="19.50" from="445046636" to="440057976" />
    <trip id="391" depart="19.55" from="-454300885#0" to="-80912578#0" />
    <trip id="392" depart="19.60" from="302857656#0" to="328501145" />
    <trip id="393" depart="19.65" from="460360345#2" to="440881629#5" />
    <trip id="394" depart="19.70" from="440041773#1" to="248282334#0" />
    <trip id="395" depart="19.75" from="-303475998#1" to="444014974#1" />
    <trip id="396" depart="19.80" from="440897382#2" to="27318112#7" />
    <trip id="397" depart="19.85" from="440769414" to="-439963244" />
    <trip id="398" depart="19.90" from="429011426" to="454843354" />
    <trip id="399" depart="19.95" from="442232086" to="224732383" />
    <trip id="400" depart="20.00" from="460360345#0" to="440064000" />
    <trip id="401" depart="20.05" from="-429080700#6" to="322620774#1" />
    <trip id="402" depart="20.10" from="-29140969#0" to="-429011430#2" />
    <trip id="403" depart="20.15" from="248407676" to="444126144#1" />
    <trip id="404" depart="20.20" from="248282332#0" to="449785726" />
    <trip id="405" depart="20.25" from="442232086" to="447250373" />
    <trip id="406" depart="20.30" from="444351851" to="415259672#1" />
    <trip id="407" depart="20.35" from="102596674" to="444232018#3" />
    <trip id="408" depart="20.40" from="444018069#1" to="-80912589#0" />
    <trip id="409" depart="20.45" from="120200965" to="444351506" />
    <trip id="410" depart="20.50" from="-427774899#2" to="118265820" />
    <trip id="411" depart="20.55" from="-45838052#0" to="188246607" />
    <trip id="412" depart="20.60" from="442879329#0" to="-89797643" />
    <trip id="413" depart="20.65" from="194344119#2" to="232602810" />