<?xml version="1.0"?>
<trips>
    <trip id="0" depart="0.0" from="880" to="6#1" />
    <trip id="1" depart="0.05" from="916" to="1151#2" />
    <trip id="2" depart="0.1" from="75#1" to="672#1" />
    <trip id="3" depart="0.15" from="699#5" to="101" />
    <trip id="4" depart="0.2" from="1352#1" to="-12#1" />
    <trip id="5" depart="0.25" from="29" to="-654#0" />
    <trip id="6" depart="0.3" from="1039" to="1070" />
    <trip id="7" depart="0.35" from="1145#0" to="883#0" />
    <trip id="8" depart="0.4" from="926#2" to="161" />
    <trip id="9" depart="0.45" from="117" to="40#1" />
    <trip id="10" depart="0.5" from="-835" to="582" />
    <trip id="11" depart="0.55" from="-668#4" to="-668#2" />
    <trip id="12" depart="0.6" from="127#1" to="-670" />
    <trip id="13" depart="0.65" from="1154" to="-976" />
    <trip id="14" depart="0.7" from="997" to="1136#3" />
    <trip id="15" depart="0.75" from="-1155" to="-13" />
    <trip id="16" depart="0.8" from="8" to="1121" />
    <trip id="17" depart="0.85" from="838#0" to="-14" />
    <trip id="18" depart="0.9" from="974" to="1246" />
    <trip id="19" depart="0.95" from="1230#0" to="40#0" />
    <trip id="20" depart="1.0" from="1037#1" to="1160#1" />
    <trip id="21" depart="1.05" from="1204" to="958#4" />
    <trip id="22" depart="1.1" from="986#2" to="1291#2" />
    <trip id="23" depart="1.15" from="1345#2" to="-161" />
    <trip id="24" depart="1.2" from="127#3" to="973#2" />
    <trip id="25" depart="1.25" from="640#0" to="812#1" />
    <trip id="26" depart="1.3" from="45" to="552#0" />
    <trip id="27" depart="1.35" from="177" to="-782" />
    <trip id="28" depart="1.4" from="-636#6" to="910#1" />
    <trip id="29" depart="1.45" from="121#2" to="847" />
    <trip id="30" depart="1.5" from="919" to="1109" />
    <trip id="31" depart="1.55" from="-351#1" to="1283#1" />
    <trip id="32" depart="1.6" from="54" to="363" />
    <trip id="33" depart="1.65" from="954" to="838#2" />
    <trip id="34" depart="1.7" from="356#1" to="40#0" />
    <trip id="35" depart="1.75" from="26#0" to="-377" />
    <trip id="36" depart="1.8" from="176#0" to="887#1" />
    <trip id="37" depart="1.85" from="-811" to="643" />
    <trip id="38" depart="1.9" from="925" to="1109" />
    <trip id="39" depart="1.95" from="1017#4" to="60" />
    <trip id="40" depart="2.0" from="1282" to="87#0" />
    <trip id="41" depart="2.05" from="958#5" to="1271" />
    <trip id="42" depart="2.1" from="-875#0" to="174#2" />
    <trip id="43" depart="2.15" from="838#3" to="1035" />
    <trip id="44" depart="2.2" from="786#4" to="631#2" />
    <trip id="45" depart="2.25" from="1111" to="-669#3" />
    <trip id="46" depart="2.3" from="-358#1" to="1267#1" />
    <trip id="47" depart="2.35" from="761" to="184" />
    <trip id="48" depart="2.4" from="-649#1" to="1236" />
    <trip id="49" depart="2.45" from="-394#0" to="1150" />
    <trip id="50" depart="2.5" from="766#2" to="1108#1" />
    <trip id="51" depart="2.55" from="1119#0" to="981#1" />
    <trip id="52" depart="2.6" from="-838#3" to="1106#2" />
    <trip id="53" depart="2.65" from="-648#1" to="838#0" />
    <trip id="54" depart="2.7" from="1224" to="1082" />
    <trip id="55" depart="2.75" from="1273" to="1113#0" />
    <trip id="56" depart="2.8" from="831#0" to="-668#0" />
    <trip id="57" depart="2.85" from="217" to="1016#1" />
    <trip id="58" depart="2.9" from="-651#5" to="-636#0" />
    <trip id="59" depart="2.95" from="-1119#1" to="576#0" />
    <trip id="60" depart="3.0" from="1350" to="1086#0" />
    <trip id="61" depart="3.05" from="616#1" to="1007#1" />
    <trip id="62" depart="3.1" from="47#8" to="699#1" />
    <trip id="63" depart="3.15" from="-395" to="1050" />
    <trip id="64" depart="3.2" from="5#1" to="1194#1" />
    <trip id="65" depart="3.25" from="669#6" to="-648#7" />
    <trip id="66" depart="3.3" from="932#5" to="212" />
    <trip id="67" depart="3.35" from="1138" to="823" />
    <trip id="68" depart="3.4" from="1200#2" to="95" />
    <trip id="69" depart="3.45" from="127#3" to="889#0" />
    <trip id="70" depart="3.5" from="655#1" to="1192#1" />
    <trip id="71" depart="3.55" from="1136#7" to="889#0" />
    <trip id="72" depart="3.6" from="1136#1" to="973#1" />
    <trip id="73" depart="3.65" from="535" to="952" />
    <trip id="74" depart="3.7" from="908#2" to="1182#3" />
    <trip id="75" depart="3.75" from="-669#3" to="155#0" />
    <trip id="76" depart="3.8" from="1345#0" to="980#2" />
    <trip id="77" depart="3.85" from="-360" to="902#0" />
    <trip id="78" depart="3.9" from="1197#2" to="964" />
    <trip id="79" depart="3.95" from="1046#0" to="1291#2" />
    <trip id="80" depart="4.0" from="958#5" to="958#4" />
    <trip id="81" depart="4.05" from="1275#1" to="369#2" />
    <trip id="82" depart="4.1" from="1221#0" to="1192#0" />
    <trip id="83" depart="4.15" from="-638" to="-369#2" />
    <trip id="84" depart="4.2" from="-767" to="619" />
    <trip id="85" depart="4.25" from="-772" to="-636#5" />
    <trip id="86" depart="4.3" from="210" to="-648#5" />
    <trip id="87" depart="4.35" from="-668#1" to="1067" />
    <trip id="88" depart="4.4" from="-547#1" to="1017#3" />
    <trip id="89" depart="4.45" from="-672#1" to="1321" />
    <trip id="90" depart="4.5" from="1100" to="1178" />
    <trip id="91" depart="4.55" from="127#3" to="1015" />
    <trip id="92" depart="4.6" from="673" to="581" />
    <trip id="93" depart="4.65" from="1310#3" to="1281#0" />
    <trip id="94" depart="4.7" from="914#0" to="1200#2" />
    <trip id="95" depart="4.75" from="615#1" to="103" />
    <trip id="96" depart="4.8" from="393#0" to="1222" />
    <trip id="97" depart="4.85" from="1349" to="958#1" />
    <trip id="98" depart="4.9" from="-16" to="118#1" />
    <trip id="99" depart="4.95" from="-169#1" to="813" />
    <trip id="100" depart="5.0" from="-632#3" to="1016#3" />
    <trip id="101" depart="5.05" from="-572#0" to="374" />
    <trip id="102" depart="5.1" from="1185" to="1141" />
    <trip id="103" depart="5.15" from="-782" to="1342" />
    <trip id="104" depart="5.2" from="-1264#2" to="1017#0" />
    <trip id="105" depart="5.25" from="636#0" to="770" />
    <trip id="106" depart="5.3" from="1016#4" to="648#6" />
    <trip id="107" depart="5.35" from="908#1" to="1324#0" />
    <trip id="108" depart="5.4" from="-669#3" to="1329" />
    <trip id="109" depart="5.45" from="909#1" to="990#0" />
    <trip id="110" depart="5.5" from="1048#0" to="855#1" />
    <trip id="111" depart="5.55" from="1079" to="808" />
    <trip id="112" depart="5.6" from="618#0" to="672#1" />
    <trip id="113" depart="5.65" from="-615#0" to="1051#1" />
    <trip id="114" depart="5.7" from="1182#5" to="648#1" />
    <trip id="115" depart="5.75" from="957#4" to="1113#0" />
    <trip id="116" depart="5.8" from="45" to="-636#4" />
    <trip id="117" depart="5.85" from="-1239" to="830" />
    <trip id="118" depart="5.9" from="756" to="637" />
    <trip id="119" depart="5.95" from="1152#3" to="668#3" />
    <trip id="120" depart="6.0" from="1135#1" to="1182#4" />
    <trip id="121" depart="6.05" from="744#1" to="127#2" />
    <trip id="122" depart="6.1" from="1016#2" to="1223" />
    <trip id="123" depart="6.15" from="121#0" to="1149" />
    <trip id="124" depart="6.2" from="1368" to="-618#2" />
    <trip id="125" depart="6.25" from="1068" to="1150" />
    <trip id="126" depart="6.3" from="-121#0" to="40#0" />
    <trip id="127" depart="6.35" from="926#1" to="6#1" />
    <trip id="128" depart="6.4" from="-155#1" to="37" />
    <trip id="129" depart="6.45" from="791" to="1198#0" />
    <trip id="130" depart="6.5" from="-636#6" to="1231" />
    <trip id="131" depart="6.55" from="1231" to="210" />
    <trip id="132" depart="6.6" from="985#1" to="648#2" />
    <trip id="133" depart="6.65" from="1343#4" to="1153#0" />
    <trip id="134" depart="6.7" from="1325" to="44" />
    <trip id="135" depart="6.75" from="1180" to="-720#1" />
    <trip id="136" depart="6.8" from="1328" to="1370" />
    <trip id="137" depart="6.85" from="631#4" to="1355#0" />
    <trip id="138" depart="6.9" from="-358#0" to="1070" />
    <trip id="139" depart="6.95" from="1026#1" to="901#0" />
    <trip id="140" depart="7.0" from="-357#0" to="1165" />
    <trip id="141" depart="7.05" from="1262" to="1233#1" />
    <trip id="142" depart="7.1" from="-570#0" to="1142#1" />
    <trip id="143" depart="7.15" from="922#0" to="1004" />
    <trip id="144" depart="7.2" from="-640#3" to="668#4" />
    <trip id="145" depart="7.25" from="669#4" to="829#1" />
    <trip id="146" depart="7.3" from="1362#3" to="-636#1" />
    <trip id="147" depart="7.35" from="1319" to="1037#0" />
    <trip id="148" depart="7.4" from="888" to="966#1" />
    <trip id="149" depart="7.45" from="1332#0" to="636#0" />
    <trip id="150" depart="7.5" from="1047#0" to="1213#1" />
    <trip id="151" depart="7.55" from="-139#0" to="668#0" />
    <trip id="152" depart="7.6" from="930" to="-618#2" />
    <trip id="153" depart="7.65" from="1066" to="1193#0" />
    <trip id="154" depart="7.7" from="1244" to="-1279#0" />
    <trip id="155" depart="7.75" from="39#0" to="-651#1" />
    <trip id="156" depart="7.8" from="-121#0" to="671#1" />
    <trip id="157" depart="7.85" from="178" to="-13" />
    <trip id="158" depart="7.9" from="1277" to="1002" />
    <trip id="159" depart="7.95" from="890#1" to="1034" />
    <trip id="160" depart="8.0" from="-102" to="885#2" />
    <trip id="161" depart="8.05" from="1343#3" to="1301" />
    <trip id="162" depart="8.1" from="852#0" to="117" />
    <trip id="163" depart="8.15" from="1162" to="-549#0" />
    <trip id="164" depart="8.2" from="47#5" to="892#0" />
    <trip id="165" depart="8.25" from="940#0" to="1323#0" />
    <trip id="166" depart="8.3" from="883#1" to="1215" />
    <trip id="167" depart="8.35" from="1164" to="873" />
    <trip id="168" depart="8.4" from="1136#7" to="1194#1" />
    <trip id="169" depart="8.45" from="642" to="989" />
    <trip id="170" depart="8.5" from="-669#7" to="822" />
    <trip id="171" depart="8.55" from="786#4" to="830" />
    <trip id="172" depart="8.6" from="1075" to="157" />
    <trip id="173" depart="8.65" from="1213#0" to="-648#0" />
    <trip id="174" depart="8.7" from="-640#2" to="1183" />
    <trip id="175" depart="8.75" from="883#0" to="-648#0" />
    <trip id="176" depart="8.8" from="893#1" to="986#3" />
    <trip id="177" depart="8.85" from="1281#0" to="673" />
    <trip id="178" depart="8.9" from="192" to="777" />
    <trip id="179" depart="8.95" from="1113#0" to="394#1" />
    <trip id="180" depart="9.0" from="-774" to="1134" />
    <trip id="181" depart="9.05" from="-393#0" to="926#0" />
    <trip id="182" depart="9.1" from="-976" to="-169#1" />
    <trip id="183" depart="9.15" from="1197#1" to="60" />
    <trip id="184" depart="9.2" from="1085" to="1203" />
    <trip id="185" depart="9.25" from="1140#0" to="355#1" />
    <trip id="186" depart="9.3" from="-648#5" to="1026#1" />
    <trip id="187" depart="9.35" from="-772" to="-1155" />
    <trip id="188" depart="9.4" from="117" to="897" />
    <trip id="189" depart="9.45" from="105" to="-1279#3" />
    <trip id="190" depart="9.5" from="614#1" to="786#0" />
    <trip id="191" depart="9.55" from="-641" to="1329" />
    <trip id="192" depart="9.6" from="1024#1" to="164" />
    <trip id="193" depart="9.65" from="1127#0" to="828" />
    <trip id="194" depart="9.7" from="1180" to="1200#0" />
    <trip id="195" depart="9.75" from="856" to="1216" />
    <trip id="196" depart="9.8" from="955" to="-885#1" />
    <trip id="197" depart="9.85" from="26#1" to="-648#1" />
    <trip id="198" depart="9.9" from="934#1" to="631#0" />
    <trip id="199" depart="9.95" from="78" to="1198#1" />
    <trip id="200" depart="10.0" from="907#0" to="1065" />
    <trip id="201" depart="10.05" from="744#1" to="1304" />
    <trip id="202" depart="10.1" from="651#0" to="-14" />
    <trip id="203" depart="10.15" from="1003" to="936" />
    <trip id="204" depart="10.2" from="692" to="-1264#1" />
    <trip id="205" depart="10.25" from="950" to="-983#1" />
    <trip id="206" depart="10.3" from="766#2" to="901#4" />
    <trip id="207" depart="10.35" from="1148#1" to="184" />
    <trip id="208" depart="10.4" from="1363" to="75#1" />
    <trip id="209" depart="10.45" from="1006#1" to="-885#0" />
    <trip id="210" depart="10.5" from="1163" to="632#0" />
    <trip id="211" depart="10.55" from="55#1" to="158" />
    <trip id="212" depart="10.6" from="-212" to="938" />
    <trip id="213" depart="10.65" from="1324#1" to="1180" />
    <trip id="214" depart="10.7" from="765#2" to="1152#2" />
    <trip id="215" depart="10.75" from="816" to="1144" />
    <trip id="216" depart="10.8" from="-618#1" to="1152#2" />
    <trip id="217" depart="10.85" from="885#2" to="172" />
    <trip id="218" depart="10.9" from="1186#1" to="957#2" />
    <trip id="219" depart="10.95" from="873" to="1079" />
    <trip id="220" depart="11.0" from="-549#0" to="-1191#1" />
    <trip id="221" depart="11.05" from="-1153#1" to="648#0" />
    <trip id="222" depart="11.1" from="229#0" to="631#0" />
    <trip id="223" depart="11.15" from="845" to="24" />
    <trip id="224" depart="11.2" from="-747#0" to="1274" />
    <trip id="225" depart="11.25" from="-121#2" to="1155" />
    <trip id="226" depart="11.3" from="166" to="1150" />
    <trip id="227" depart="11.35" from="-731" to="1130" />
    <trip id="228" depart="11.4" from="971" to="-1291#1" />
    <trip id="229" depart="11.45" from="646#1" to="1002" />
    <trip id="230" depart="11.5" from="806" to="1235" />
    <trip id="231" depart="11.55" from="206" to="-632#3" />
    <trip id="232" depart="11.6" from="1249" to="649#1" />
    <trip id="233" depart="11.65" from="852#0" to="-1264#1" />
    <trip id="234" depart="11.7" from="1181#4" to="671#3" />
    <trip id="235" depart="11.75" from="1367" to="952" />
    <trip id="236" depart="11.8" from="1265" to="43" />
    <trip id="237" depart="11.85" from="1300" to="975#2" />
    <trip id="238" depart="11.9" from="1224" to="1051#1" />
    <trip id="239" depart="11.95" from="-677" to="-1296#0" />
    <trip id="240" depart="12.0" from="1127#1" to="1159#2" />
    <trip id="241" depart="12.05" from="99" to="-139#2" />
    <trip id="242" depart="12.1" from="957#1" to="1136#1" />
    <trip id="243" depart="12.15" from="-358#1" to="762#1" />
    <trip id="244" depart="12.2" from="907#1" to="1017#2" />
    <trip id="245" depart="12.25" from="902#0" to="669#1" />
    <trip id="246" depart="12.3" from="1281#2" to="1113#0" />
    <trip id="247" depart="12.35" from="648#8" to="973#2" />
    <trip id="248" depart="12.4" from="1179" to="933#1" />
    <trip id="249" depart="12.45" from="-39#4" to="1032#0" />
    <trip id="250" depart="12.5" from="-1291#0" to="-1296#0" />
    <trip id="251" depart="12.55" from="-1279#0" to="1040" />
    <trip id="252" depart="12.6" from="1146" to="1046#3" />
    <trip id="253" depart="12.65" from="661" to="1159#0" />
    <trip id="254" depart="12.7" from="1091#0" to="1278" />
    <trip id="255" depart="12.75" from="69#0" to="-140" />
    <trip id="256" depart="12.8" from="1263" to="-580" />
    <trip id="257" depart="12.85" from="1138" to="-706#1" />
    <trip id="258" depart="12.9" from="1243#3" to="-648#1" />
    <trip id="259" depart="12.95" from="1027" to="772" />
    <trip id="260" depart="13.0" from="-158" to="636#3" />
    <trip id="261" depart="13.05" from="-778" to="1136#7" />
    <trip id="262" depart="13.1" from="1148#0" to="-32#0" />
    <trip id="263" depart="13.15" from="195#1" to="642" />
    <trip id="264" depart="13.2" from="752" to="887#1" />
    <trip id="265" depart="13.25" from="651#3" to="107" />
    <trip id="266" depart="13.3" from="1151#1" to="1152#2" />
    <trip id="267" depart="13.35" from="908#0" to="1259#1" />
    <trip id="268" depart="13.4" from="-885#2" to="1046#3" />
    <trip id="269" depart="13.45" from="393#1" to="363" />
    <trip id="270" depart="13.5" from="786#1" to="769" />
    <trip id="271" depart="13.55" from="-542#0" to="882#0" />
    <trip id="272" depart="13.6" from="958#1" to="848#0" />
    <trip id="273" depart="13.65" from="-195#0" to="1073" />
    <trip id="274" depart="13.7" from="957#4" to="1077" />
    <trip id="275" depart="13.75" from="14" to="393#0" />
    <trip id="276" depart="13.8" from="929" to="766#0" />
    <trip id="277" depart="13.85" from="940#0" to="350#0" />
    <trip id="278" depart="13.9" from="185#0" to="1113#0" />
    <trip id="279" depart="13.95" from="888" to="87#0" />
    <trip id="280" depart="14.0" from="424" to="942#0" />
    <trip id="281" depart="14.05" from="851" to="1346" />
    <trip id="282" depart="14.1" from="47#9" to="945#2" />
    <trip id="283" depart="14.15" from="1032#1" to="1181#1" />
    <trip id="284" depart="14.2" from="178" to="669#1" />
    <trip id="285" depart="14.25" from="118#0" to="1159#0" />
    <trip id="286" depart="14.3" from="1182#5" to="-159" />
    <trip id="287" depart="14.35" from="826" to="1022" />
    <trip id="288" depart="14.4" from="95" to="661" />
    <trip id="289" depart="14.45" from="1182#2" to="-654#3" />
    <trip id="290" depart="14.5" from="-982#1" to="806" />
    <trip id="291" depart="14.55" from="1107" to="864" />
    <trip id="292" depart="14.6" from="1182#1" to="18" />
    <trip id="293" depart="14.65" from="839#0" to="-984#0" />
    <trip id="294" depart="14.7" from="672#2" to="1128" />
    <trip id="295" depart="14.75" from="1016#4" to="1227" />
    <trip id="296" depart="14.8" from="832" to="1177" />
    <trip id="297" depart="14.85" from="615#1" to="-616#1" />
    <trip id="298" depart="14.9" from="1208" to="787#0" />
    <trip id="299" depart="14.95" from="83" to="1292#1" />
    <trip id="300" depart="15.0" from="39#4" to="-767" />
    <trip id="301" depart="15.05" from="549#1" to="1363" />
    <trip id="302" depart="15.1" from="909#2" to="8" />
    <trip id="303" depart="15.15" from="-376" to="372#0" />
    <trip id="304" depart="15.2" from="161" to="1015" />
    <trip id="305" depart="15.25" from="921" to="678" />
    <trip id="306" depart="15.3" from="43" to="-139#1" />
    <trip id="307" depart="15.35" from="-816" to="1313#2" />
    <trip id="308" depart="15.4" from="1151#1" to="963" />
    <trip id="309" depart="15.45" from="1041#2" to="746#0" />
    <trip id="310" depart="15.5" from="38" to="-642" />
    <trip id="311" depart="15.55" from="140" to="1181#3" />
    <trip id="312" depart="15.6" from="152" to="995" />
    <trip id="313" depart="15.65" from="-366" to="983#2" />
    <trip id="314" depart="15.7" from="1363" to="1280" />
    <trip id="315" depart="15.75" from="1292#0" to="774" />
    <trip id="316" depart="15.8" from="1072#0" to="766#7" />
    <trip id="317" depart="15.85" from="638" to="-648#4" />
    <trip id="318" depart="15.9" from="1119#1" to="854" />
    <trip id="319" depart="15.95" from="618#1" to="1324#2" />
    <trip id="320" depart="16.0" from="-370" to="793" />
    <trip id="321" depart="16.05" from="1324#2" to="764#2" />
    <trip id="322" depart="16.1" from="1146" to="-121#4" />
    <trip id="323" depart="16.15" from="423" to="182" />
    <trip id="324" depart="16.2" from="1198#0" to="1135#0" />
    <trip id="325" depart="16.25" from="1080#1" to="1349" />
    <trip id="326" depart="16.3" from="-537" to="1152#3" />
    <trip id="327" depart="16.35" from="1282" to="979#1" />
    <trip id="328" depart="16.4" from="699#3" to="130" />
    <trip id="329" depart="16.45" from="47#4" to="655#1" />
    <trip id="330" depart="16.5" from="1191#1" to="155#1" />
    <trip id="331" depart="16.55" from="1345#3" to="581" />
    <trip id="332" depart="16.6" from="878" to="-966#0" />
    <trip id="333" depart="16.65" from="740" to="-394#1" />
    <trip id="334" depart="16.7" from="111" to="671#3" />
    <trip id="335" depart="16.75" from="1081" to="958#1" />
    <trip id="336" depart="16.8" from="889#0" to="1172" />
    <trip id="337" depart="16.85" from="-366" to="-12#1" />
    <trip id="338" depart="16.9" from="958#0" to="581" />
    <trip id="339" depart="16.95" from="1136#3" to="1272" />
    <trip id="340" depart="17.0" from="-584" to="932#2" />
    <trip id="341" depart="17.05" from="756" to="1182#3" />
    <trip id="342" depart="17.1" from="992#1" to="-1113#0" />
    <trip id="343" depart="17.15" from="1267#0" to="890#0" />
    <trip id="344" depart="17.2" from="-39#1" to="1113#1" />
    <trip id="345" depart="17.25" from="1329" to="776" />
    <trip id="346" depart="17.3" from="916" to="1114" />
    <trip id="347" depart="17.35" from="-572#1" to="1101" />
    <trip id="348" depart="17.4" from="-648#7" to="1296#0" />
    <trip id="349" depart="17.45" from="975#2" to="-1291#2" />
    <trip id="350" depart="17.5" from="616#1" to="792" />
    <trip id="351" depart="17.55" from="-983#0" to="775" />
    <trip id="352" depart="17.6" from="1197#0" to="1151#1" />
    <trip id="353" depart="17.65" from="-102" to="1352#0" />
    <trip id="354" depart="17.7" from="1355#0" to="1310#3" />
    <trip id="355" depart="17.75" from="-44" to="911" />
    <trip id="356" depart="17.8" from="944" to="-155#1" />
    <trip id="357" depart="17.85" from="1330" to="1240#1" />
    <trip id="358" depart="17.9" from="951#0" to="631#0" />
    <trip id="359" depart="17.95" from="-361" to="-838#2" />
    <trip id="360" depart="18.0" from="899" to="648#5" />
    <trip id="361" depart="18.05" from="139#2" to="856" />
    <trip id="362" depart="18.1" from="1279#3" to="636#2" />
    <trip id="363" depart="18.15" from="957#4" to="1348#0" />
    <trip id="364" depart="18.2" from="1362#2" to="776" />
    <trip id="365" depart="18.25" from="-577#0" to="-1292#0" />
    <trip id="366" depart="18.3" from="1130" to="1202#1" />
    <trip id="367" depart="18.35" from="1180" to="150" />
    <trip id="368" depart="18.4" from="-1291#2" to="-1279#3" />
    <trip id="369" depart="18.45" from="1313#3" to="-363" />
    <trip id="370" depart="18.5" from="1270#1" to="660" />
    <trip id="371" depart="18.55" from="884#1" to="833" />
    <trip id="372" depart="18.6" from="649#1" to="-131#1" />
    <trip id="373" depart="18.65" from="10" to="1016#2" />
    <trip id="374" depart="18.7" from="766#7" to="669#6" />
    <trip id="375" depart="18.75" from="922#1" to="41#0" />
    <trip id="376" depart="18.8" from="101" to="-651#5" />
    <trip id="377" depart="18.85" from="132" to="544" />
    <trip id="378" depart="18.9" from="170" to="-982#2" />
    <trip id="379" depart="18.95" from="550" to="-782" />
    <trip id="380" depart="19.0" from="-669#4" to="631#0" />
    <trip id="381" depart="19.05" from="1343#0" to="567#1" />
    <trip id="382" depart="19.1" from="668#0" to="635" />
    <trip id="383" depart="19.15" from="175#1" to="771" />
    <trip id="384" depart="19.2" from="957#1" to="-537" />
    <trip id="385" depart="19.25" from="-1292#1" to="-661" />
    <trip id="386" depart="19.3" from="1354#2" to="1343#4" />
    <trip id="387" depart="19.35" from="-394#0" to="-651#1" />
    <trip id="388" depart="19.4" from="764#0" to="1132" />
    <trip id="389" depart="19.45" from="1320" to="578#1" />
    <trip id="390" depart="19.5" from="1201#4" to="884#0" />
    <trip id="391" depart="19.55" from="655#3" to="786#3" />
    <trip id="392" depart="19.6" from="361" to="641" />
    <trip id="393" depart="19.65" from="656" to="661" />
    <trip id="394" depart="19.7" from="-614#1" to="672#0" />
    <trip id="395" depart="19.75" from="932#1" to="-43" />
    <trip id="396" depart="19.8" from="234" to="39#4" />
    <trip id="397" depart="19.85" from="576#0" to="1323#0" />
    <trip id="398" depart="19.9" from="1237" to="770" />
    <trip id="399" depart="19.95" from="1232" to="890#1" />
    <trip id="400" depart="20.0" from="986#1" to="-875#0" />
    <trip id="401" depart="20.05" from="1172" to="-45" />
    <trip id="402" depart="20.1" from="1135#1" to="881" />
    <trip id="403" depart="20.15" from="-669#5" to="1022" />
    <trip id="404" depart="20.2" from="-648#1" to="547#1" />
    <trip id="405" depart="20.25" from="912#1" to="752" />
    <trip id="406" depart="20.3" from="852#0" to="1167" />
    <trip id="407" depart="20.35" from="26#0" to="1209#1" />
    <trip id="408" depart="20.4" from="1362#3" to="1052" />
    <trip id="409" depart="20.45" from="-140" to="1145#0" />
    <trip id="410" depart="20.5" from="615#0" to="211" />
    <trip id="411" depart="20.55" from="1077" to="879" />
    <trip id="412" depart="20.6" from="350#0" to="1235" />
    <trip id="413" depart="20.65" from="54" to="879" />
    <trip id="414" depart="20.7" from="361" to="168" />
    <trip id="415" depart="20.75" from="-139#0" to="913#1" />
    <trip id="416" depart="20.8" from="24" to="957#5" />
    <trip id="417" depart="20.85" from="87#0" to="1155" />
    <trip id="418" depart="20.9" from="1072#1" to="1037#2" />
    <trip id="419" depart="20.95" from="1151#1" to="880" />
    <trip id="420" depart="21.0" from="1301" to="-1291#0" />
    <trip id="421" depart="21.05" from="1218#1" to="979#0" />
    <trip id="422" depart="21.1" from="1224" to="1355#1" />
    <trip id="423" depart="21.15" from="-95" to="1224" />
    <trip id="424" depart="21.2" from="1165" to="839#1" />
    <trip id="425" depart="21.25" from="1365" to="997" />
    <trip id="426" depart="21.3" from="932#3" to="1198#1" />
    <trip id="427" depart="21.35" from="932#3" to="1240#1" />
    <trip id="428" depart="21.4" from="1233#4" to="1016#2" />
    <trip id="429" depart="21.45" from="1153#1" to="625" />
    <trip id="430" depart="21.5" from="46" to="369#2" />
    <trip id="431" depart="21.55" from="923#1" to="39#2" />
    <trip id="432" depart="21.6" from="1026#1" to="892#0" />
    <trip id="433" depart="21.65" from="1313#1" to="1017#2" />
    <trip id="434" depart="21.7" from="1312" to="-651#3" />
    <trip id="435" depart="21.75" from="1041#0" to="1270#2" />
    <trip id="436" depart="21.8" from="-984#3" to="939#1" />
    <trip id="437" depart="21.85" from="365#1" to="-834" />
    <trip id="438" depart="21.9" from="168" to="-1240#1" />
    <trip id="439" depart="21.95" from="-42" to="-651#4" />
    <trip id="440" depart="22.0" from="871" to="668#2" />
    <trip id="441" depart="22.05" from="669#0" to="1233#1" />
    <trip id="442" depart="22.1" from="769" to="1234" />
    <trip id="443" depart="22.15" from="-366" to="1026#1" />
    <trip id="444" depart="22.2" from="827#1" to="1127#0" />
    <trip id="445" depart="22.25" from="980#0" to="865" />
    <trip id="446" depart="22.3" from="-615#0" to="907#1" />
    <trip id="447" depart="22.35" from="1151#0" to="373" />
    <trip id="448" depart="22.4" from="47#1" to="1133" />
    <trip id="449" depart="22.45" from="980#2" to="648#8" />
    <trip id="450" depart="22.5" from="1265" to="1095" />
    <trip id="451" depart="22.55" from="1181#3" to="1136#5" />
    <trip id="452" depart="22.6" from="37" to="-1240#1" />
    <trip id="453" depart="22.65" from="-668#0" to="659" />
    <trip id="454" depart="22.7" from="55#1" to="1002" />
    <trip id="455" depart="22.75" from="1020" to="1281#0" />
    <trip id="456" depart="22.8" from="1113#1" to="1221#1" />
    <trip id="457" depart="22.85" from="6#1" to="1036#1" />
    <trip id="458" depart="22.9" from="950" to="1109" />
    <trip id="459" depart="22.95" from="1091#0" to="741" />
    <trip id="460" depart="23.0" from="883#1" to="1202#0" />
    <trip id="461" depart="23.05" from="655#2" to="584" />
    <trip id="462" depart="23.1" from="762#0" to="1313#1" />
    <trip id="463" depart="23.15" from="194" to="-111" />
    <trip id="464" depart="23.2" from="576#1" to="161" />
    <trip id="465" depart="23.25" from="1275#1" to="1222" />
    <trip id="466" depart="23.3" from="82" to="815" />
    <trip id="467" depart="23.35" from="1304" to="818" />
    <trip id="468" depart="23.4" from="631#3" to="-782" />
    <trip id="469" depart="23.45" from="1361#2" to="746#1" />
    <trip id="470" depart="23.5" from="908#0" to="763#3" />
    <trip id="471" depart="23.55" from="-230#1" to="1197#4" />
    <trip id="472" depart="23.6" from="1352#1" to="814#0" />
    <trip id="473" depart="23.65" from="394#1" to="-369#1" />
    <trip id="474" depart="23.7" from="-976" to="765#2" />
    <trip id="475" depart="23.75" from="919" to="655#1" />
    <trip id="476" depart="23.8" from="47#3" to="699#3" />
    <trip id="477" depart="23.85" from="648#4" to="1106#0" />
    <trip id="478" depart="23.9" from="1147" to="-636#7" />
    <trip id="479" depart="23.95" from="127#1" to="-139#1" />
    <trip id="480" depart="24.0" from="-619" to="1313#4" />
    <trip id="481" depart="24.05" from="-976" to="569" />
    <trip id="482" depart="24.1" from="1296#0" to="885#0" />
    <trip id="483" depart="24.15" from="882#1" to="1090" />
    <trip id="484" depart="24.2" from="971" to="980#1" />
    <trip id="485" depart="24.25" from="212" to="880" />
    <trip id="486" depart="24.3" from="1140#0" to="1005" />
    <trip id="487" depart="24.35" from="-551" to="699#3" />
    <trip id="488" depart="24.4" from="635" to="821#2" />
    <trip id="489" depart="24.45" from="1200#1" to="23" />
    <trip id="490" depart="24.5" from="184" to="-651#0" />
    <trip id="491" depart="24.55" from="1179" to="1254#0" />
    <trip id="492" depart="24.6" from="1101" to="44" />
    <trip id="493" depart="24.65" from="155#0" to="-121#1" />
    <trip id="494" depart="24.7" from="355#0" to="1011" />
    <trip id="495" depart="24.75" from="-43" to="1324#2" />
    <trip id="496" depart="24.8" from="-547#0" to="983#2" />