<?xml version="1.0" encoding="UTF-8"?>

<!-- generated on 04/25/15 03:35:38 by SUMO netgenerate Version 0.17.1
<?xml version="1.0" encoding="UTF-8"?>

<configuration xmlns:xsi="http://www.w3.org/2001/XMLSchema-instance" xsi:noNamespaceSchemaLocation="http://sumo.sf.net/xsd/netgenerateConfiguration.xsd">

    <grid_network>
        <grid value="true"/>
        <grid.number value="4"/>
        <grid.length value="1000"/>
    </grid_network>

    <output>
        <output-file value="input_net.net.xml"/>
    </output>

    <processing>
        <no-internal-links value="true"/>
    </processing>

    <building_defaults>
        <default.lanenumber value="4"/>
        <default.speed value="15"/>
    </building_defaults>

</configuration>
-->

<net version="0.13" xmlns:xsi="http://www.w3.org/2001/XMLSchema-instance" xsi:noNamespaceSchemaLocation="http://sumo.sf.net/xsd/net_file.xsd">

    <location netOffset="0.00,0.00" convBoundary="0.00,0.00,3000.00,3000.00" origBoundary="0.00,0.00,3000.00,3000.00" projParameter="!"/>

    <edge id="0/0to0/1" from="0/0" to="0/1" priority="-1">
        <lane id="0/0to0/1_0" index="0" speed="15.00" length="972.20" shape="11.55,13.15 11.55,985.35"/>
        <lane id="0/0to0/1_1" index="1" speed="15.00" length="972.20" shape="8.25,13.15 8.25,985.35"/>
        <lane id="0/0to0/1_2" index="2" speed="15.00" length="972.20" shape="4.95,13.15 4.95,985.35"/>
        <lane id="0/0to0/1_3" index="3" speed="15.00" length="972.20" shape="1.65,13.15 1.65,985.35"/>
    </edge>
    <edge id="0/0to1/0" from="0/0" to="1/0" priority="-1">
        <lane id="0/0to1/0_0" index="0" speed="15.00" length="972.20" shape="13.15,-11.55 985.35,-11.55"/>
        <lane id="0/0to1/0_1" index="1" speed="15.00" length="972.20" shape="13.15,-8.25 985.35,-8.25"/>
        <lane id="0/0to1/0_2" index="2" speed="15.00" length="972.20" shape="13.15,-4.95 985.35,-4.95"/>
        <lane id="0/0to1/0_3" index="3" speed="15.00" length="972.20" shape="13.15,-1.65 985.35,-1.65"/>
    </edge>
    <edge id="0/1to0/0" from="0/1" to="0/0" priority="-1">
        <lane id="0/1to0/0_0" index="0" speed="15.00" length="972.20" shape="-11.55,985.35 -11.55,13.15"/>
        <lane id="0/1to0/0_1" index="1" speed="15.00" length="972.20" shape="-8.25,985.35 -8.25,13.15"/>
        <lane id="0/1to0/0_2" index="2" speed="15.00" length="972.20" shape="-4.95,985.35 -4.95,13.15"/>
        <lane id="0/1to0/0_3" index="3" speed="15.00" length="972.20" shape="-1.65,985.35 -1.65,13.15"/>
    </edge>
    <edge id="0/1to0/2" from="0/1" to="0/2" priority="-1">
        <lane id="0/1to0/2_0" index="0" speed="15.00" length="970.70" shape="11.55,1014.65 11.55,1985.35"/>
        <lane id="0/1to0/2_1" index="1" speed="15.00" length="970.70" shape="8.25,1014.65 8.25,1985.35"/>
        <lane id="0/1to0/2_2" index="2" speed="15.00" length="970.70" shape="4.95,1014.65 4.95,1985.35"/>
        <lane id="0/1to0/2_3" index="3" speed="15.00" length="970.70" shape="1.65,1014.65 1.65,1985.35"/>
    </edge>
    <edge id="0/1to1/1" from="0/1" to="1/1" priority="-1">
        <lane id="0/1to1/1_0" index="0" speed="15.00" length="970.70" shape="14.65,988.45 985.35,988.45"/>
        <lane id="0/1to1/1_1" index="1" speed="15.00" length="970.70" shape="14.65,991.75 985.35,991.75"/>
        <lane id="0/1to1/1_2" index="2" speed="15.00" length="970.70" shape="14.65,995.05 985.35,995.05"/>
        <lane id="0/1to1/1_3" index="3" speed="15.00" length="970.70" shape="14.65,998.35 985.35,998.35"/>
    </edge>
    <edge id="0/2to0/1" from="0/2" to="0/1" priority="-1">
        <lane id="0/2to0/1_0" index="0" speed="15.00" length="970.70" shape="-11.55,1985.35 -11.55,1014.65"/>
        <lane id="0/2to0/1_1" index="1" speed="15.00" length="970.70" shape="-8.25,1985.35 -8.25,1014.65"/>
        <lane id="0/2to0/1_2" index="2" speed="15.00" length="970.70" shape="-4.95,1985.35 -4.95,1014.65"/>
        <lane id="0/2to0/1_3" index="3" speed="15.00" length="970.70" shape="-1.65,1985.35 -1.65,1014.65"/>
    </edge>
    <edge id="0/2to0/3" from="0/2" to="0/3" priority="-1">
        <lane id="0/2to0/3_0" index="0" speed="15.00" length="972.20" shape="11.55,2014.65 11.55,2986.85"/>
        <lane id="0/2to0/3_1" index="1" speed="15.00" length="972.20" shape="8.25,2014.65 8.25,2986.85"/>
        <lane id="0/2to0/3_2" index="2" speed="15.00" length="972.20" shape="4.95,2014.65 4.95,2986.85"/>
        <lane id="0/2to0/3_3" index="3" speed="15.00" length="972.20" shape="1.65,2014.65 1.65,2986.85"/>
    </edge>
    <edge id="0/2to1/2" from="0/2" to="1/2" priority="-1">
        <lane id="0/2to1/2_0" index="0" speed="15.00" length="970.70" shape="14.65,1988.45 985.35,1988.45"/>
        <lane id="0/2to1/2_1" index="1" speed="15.00" length="970.70" shape="14.65,1991.75 985.35,1991.75"/>
        <lane id="0/2to1/2_2" index="2" speed="15.00" length="970.70" shape="14.65,1995.05 985.35,1995.05"/>
        <lane id="0/2to1/2_3" index="3" speed="15.00" length="970.70" shape="14.65,1998.35 985.35,1998.35"/>
    </edge>
    <edge id="0/3to0/2" from="0/3" to="0/2" priority="-1">
        <lane id="0/3to0/2_0" index="0" speed="15.00" length="972.20" shape="-11.55,2986.85 -11.55,2014.65"/>
        <lane id="0/3to0/2_1" index="1" speed="15.00" length="972.20" shape="-8.25,2986.85 -8.25,2014.65"/>
        <lane id="0/3to0/2_2" index="2" speed="15.00" length="972.20" shape="-4.95,2986.85 -4.95,2014.65"/>
        <lane id="0/3to0/2_3" index="3" speed="15.00" length="972.20" shape="-1.65,2986.85 -1.65,2014.65"/>
    </edge>
    <edge id="0/3to1/3" from="0/3" to="1/3" priority="-1">
        <lane id="0/3to1/3_0" index="0" speed="15.00" length="972.20" shape="13.15,2988.45 985.35,2988.45"/>
        <lane id="0/3to1/3_1" index="1" speed="15.00" length="972.20" shape="13.15,2991.75 985.35,2991.75"/>
        <lane id="0/3to1/3_2" index="2" speed="15.00" length="972.20" shape="13.15,2995.05 985.35,2995.05"/>
        <lane id="0/3to1/3_3" index="3" speed="15.00" length="972.20" shape="13.15,2998.35 985.35,2998.35"/>
    </edge>
    <edge id="1/0to0/0" from="1/0" to="0/0" priority="-1">
        <lane id="1/0to0/0_0" index="0" speed="15.00" length="972.20" shape="985.35,11.55 13.15,11.55"/>
        <lane id="1/0to0/0_1" index="1" speed="15.00" length="972.20" shape="985.35,8.25 13.15,8.25"/>
        <lane id="1/0to0/0_2" index="2" speed="15.00" length="972.20" shape="985.35,4.95 13.15,4.95"/>
        <lane id="1/0to0/0_3" index="3" speed="15.00" length="972.20" shape="985.35,1.65 13.15,1.65"/>
    </edge>
    <edge id="1/0to1/1" from="1/0" to="1/1" priority="-1">
        <lane id="1/0to1/1_0" index="0" speed="15.00" length="970.70" shape="1011.55,14.65 1011.55,985.35"/>
        <lane id="1/0to1/1_1" index="1" speed="15.00" length="970.70" shape="1008.25,14.65 1008.25,985.35"/>
        <lane id="1/0to1/1_2" index="2" speed="15.00" length="970.70" shape="1004.95,14.65 1004.95,985.35"/>
        <lane id="1/0to1/1_3" index="3" speed="15.00" length="970.70" shape="1001.65,14.65 1001.65,985.35"/>
    </edge>
    <edge id="1/0to2/0" from="1/0" to="2/0" priority="-1">
        <lane id="1/0to2/0_0" index="0" speed="15.00" length="970.70" shape="1014.65,-11.55 1985.35,-11.55"/>
        <lane id="1/0to2/0_1" index="1" speed="15.00" length="970.70" shape="1014.65,-8.25 1985.35,-8.25"/>
        <lane id="1/0to2/0_2" index="2" speed="15.00" length="970.70" shape="1014.65,-4.95 1985.35,-4.95"/>
        <lane id="1/0to2/0_3" index="3" speed="15.00" length="970.70" shape="1014.65,-1.65 1985.35,-1.65"/>
    </edge>
    <edge id="1/1to0/1" from="1/1" to="0/1" priority="-1">
        <lane id="1/1to0/1_0" index="0" speed="15.00" length="970.70" shape="985.35,1011.55 14.65,1011.55"/>
        <lane id="1/1to0/1_1" index="1" speed="15.00" length="970.70" shape="985.35,1008.25 14.65,1008.25"/>
        <lane id="1/1to0/1_2" index="2" speed="15.00" length="970.70" shape="985.35,1004.95 14.65,1004.95"/>
        <lane id="1/1to0/1_3" index="3" speed="15.00" length="970.70" shape="985.35,1001.65 14.65,1001.65"/>
    </edge>
    <edge id="1/1to1/0" from="1/1" to="1/0" priority="-1">
        <lane id="1/1to1/0_0" index="0" speed="15.00" length="970.70" shape="988.45,985.35 988.45,14.65"/>
        <lane id="1/1to1/0_1" index="1" speed="15.00" length="970.70" shape="991.75,985.35 991.75,14.65"/>
        <lane id="1/1to1/0_2" index="2" speed="15.00" length="970.70" shape="995.05,985.35 995.05,14.65"/>
        <lane id="1/1to1/0_3" index="3" speed="15.00" length="970.70" shape="998.35,985.35 998.35,14.65"/>
    </edge>
    <edge id="1/1to1/2" from="1/1" to="1/2" priority="-1">
        <lane id="1/1to1/2_0" index="0" speed="15.00" length="970.70" shape="1011.55,1014.65 1011.55,1985.35"/>
        <lane id="1/1to1/2_1" index="1" speed="15.00" length="970.70" shape="1008.25,1014.65 1008.25,1985.35"/>
        <lane id="1/1to1/2_2" index="2" speed="15.00" length="970.70" shape="1004.95,1014.65 1004.95,1985.35"/>
        <lane id="1/1to1/2_3" index="3" speed="15.00" length="970.70" shape="1001.65,1014.65 1001.65,1985.35"/>
    </edge>
    <edge id="1/1to2/1" from="1/1" to="2/1" priority="-1">
        <lane id="1/1to2/1_0" index="0" speed="15.00" length="970.70" shape="1014.65,988.45 1985.35,988.45"/>
        <lane id="1/1to2/1_1" index="1" speed="15.00" length="970.70" shape="1014.65,991.75 1985.35,991.75"/>
        <lane id="1/1to2/1_2" index="2" speed="15.00" length="970.70" shape="1014.65,995.05 1985.35,995.05"/>
        <lane id="1/1to2/1_3" index="3" speed="15.00" length="970.70" shape="1014.65,998.35 1985.35,998.35"/>
    </edge>
    <edge id="1/2to0/2" from="1/2" to="0/2" priority="-1">
        <lane id="1/2to0/2_0" index="0" speed="15.00" length="970.70" shape="985.35,2011.55 14.65,2011.55"/>
        <lane id="1/2to0/2_1" index="1" speed="15.00" length="970.70" shape="985.35,2008.25 14.65,2008.25"/>
        <lane id="1/2to0/2_2" index="2" speed="15.00" length="970.70" shape="985.35,2004.95 14.65,2004.95"/>
        <lane id="1/2to0/2_3" index="3" speed="15.00" length="970.70" shape="985.35,2001.65 14.65,2001.65"/>
    </edge>
    <edge id="1/2to1/1" from="1/2" to="1/1" priority="-1">
        <lane id="1/2to1/1_0" index="0" speed="15.00" length="970.70" shape="988.45,1985.35 988.45,1014.65"/>
        <lane id="1/2to1/1_1" index="1" speed="15.00" length="970.70" shape="991.75,1985.35 991.75,1014.65"/>
        <lane id="1/2to1/1_2" index="2" speed="15.00" length="970.70" shape="995.05,1985.35 995.05,1014.65"/>
        <lane id="1/2to1/1_3" index="3" speed="15.00" length="970.70" shape="998.35,1985.35 998.35,1014.65"/>
    </edge>
    <edge id="1/2to1/3" from="1/2" to="1/3" priority="-1">
        <lane id="1/2to1/3_0" index="0" speed="15.00" length="970.70" shape="1011.55,2014.65 1011.55,2985.35"/>
        <lane id="1/2to1/3_1" index="1" speed="15.00" length="970.70" shape="1008.25,2014.65 1008.25,2985.35"/>
        <lane id="1/2to1/3_2" index="2" speed="15.00" length="970.70" shape="1004.95,2014.65 1004.95,2985.35"/>
        <lane id="1/2to1/3_3" index="3" speed="15.00" length="970.70" shape="1001.65,2014.65 1001.65,2985.35"/>
    </edge>
    <edge id="1/2to2/2" from="1/2" to="2/2" priority="-1">
        <lane id="1/2to2/2_0" index="0" speed="15.00" length="970.70" shape="1014.65,1988.45 1985.35,1988.45"/>
        <lane id="1/2to2/2_1" index="1" speed="15.00" length="970.70" shape="1014.65,1991.75 1985.35,1991.75"/>
        <lane id="1/2to2/2_2" index="2" speed="15.00" length="970.70" shape="1014.65,1995.05 1985.35,1995.05"/>
        <lane id="1/2to2/2_3" index="3" speed="15.00" length="970.70" shape="1014.65,1998.35 1985.35,1998.35"/>
    </edge>
    <edge id="1/3to0/3" from="1/3" to="0/3" priority="-1">
        <lane id="1/3to0/3_0" index="0" speed="15.00" length="972.20" shape="985.35,3011.55 13.15,3011.55"/>
        <lane id="1/3to0/3_1" index="1" speed="15.00" length="972.20" shape="985.35,3008.25 13.15,3008.25"/>
        <lane id="1/3to0/3_2" index="2" speed="15.00" length="972.20" shape="985.35,3004.95 13.15,3004.95"/>
        <lane id="1/3to0/3_3" index="3" speed="15.00" length="972.20" shape="985.35,3001.65 13.15,3001.65"/>
    </edge>
    <edge id="1/3to1/2" from="1/3" to="1/2" priority="-1">
        <lane id="1/3to1/2_0" index="0" speed="15.00" length="970.70" shape="988.45,2985.35 988.45,2014.65"/>
        <lane id="1/3to1/2_1" index="1" speed="15.00" length="970.70" shape="991.75,2985.35 991.75,2014.65"/>
        <lane id="1/3to1/2_2" index="2" speed="15.00" length="970.70" shape="995.05,2985.35 995.05,2014.65"/>
        <lane id="1/3to1/2_3" index="3" speed="15.00" length="970.70" shape="998.35,2985.35 998.35,2014.65"/>
    </edge>
    <edge id="1/3to2/3" from="1/3" to="2/3" priority="-1">
        <lane id="1/3to2/3_0" index="0" speed="15.00" length="970.70" shape="1014.65,2988.45 1985.35,2988.45"/>
        <lane id="1/3to2/3_1" index="1" speed="15.00" length="970.70" shape="1014.65,2991.75 1985.35,2991.75"/>
        <lane id="1/3to2/3_2" index="2" speed="15.00" length="970.70" shape="1014.65,2995.05 1985.35,2995.05"/>
        <lane id="1/3to2/3_3" index="3" speed="15.00" length="970.70" shape="1014.65,2998.35 1985.35,2998.35"/>
    </edge>
    <edge id="2/0to1/0" from="2/0" to="1/0" priority="-1">
        <lane id="2/0to1/0_0" index="0" speed="15.00" length="970.70" shape="1985.35,11.55 1014.65,11.55"/>
        <lane id="2/0to1/0_1" index="1" speed="15.00" length="970.70" shape="1985.35,8.25 1014.65,8.25"/>
        <lane id="2/0to1/0_2" index="2" speed="15.00" length="970.70" shape="1985.35,4.95 1014.65,4.95"/>
        <lane id="2/0to1/0_3" index="3" speed="15.00" length="970.70" shape="1985.35,1.65 1014.65,1.65"/>
    </edge>
    <edge id="2/0to2/1" from="2/0" to="2/1" priority="-1">
        <lane id="2/0to2/1_0" index="0" speed="15.00" length="970.70" shape="2011.55,14.65 2011.55,985.35"/>
        <lane id="2/0to2/1_1" index="1" speed="15.00" length="970.70" shape="2008.25,14.65 2008.25,985.35"/>
        <lane id="2/0to2/1_2" index="2" speed="15.00" length="970.70" shape="2004.95,14.65 2004.95,985.35"/>
        <lane id="2/0to2/1_3" index="3" speed="15.00" length="970.70" shape="2001.65,14.65 2001.65,985.35"/>
    </edge>
    <edge id="2/0to3/0" from="2/0" to="3/0" priority="-1">
        <lane id="2/0to3/0_0" index="0" speed="15.00" length="972.20" shape="2014.65,-11.55 2986.85,-11.55"/>
        <lane id="2/0to3/0_1" index="1" speed="15.00" length="972.20" shape="2014.65,-8.25 2986.85,-8.25"/>
        <lane id="2/0to3/0_2" index="2" speed="15.00" length="972.20" shape="2014.65,-4.95 2986.85,-4.95"/>
        <lane id="2/0to3/0_3" index="3" speed="15.00" length="972.20" shape="2014.65,-1.65 2986.85,-1.65"/>
    </edge>
    <edge id="2/1to1/1" from="2/1" to="1/1" priority="-1">
        <lane id="2/1to1/1_0" index="0" speed="15.00" length="970.70" shape="1985.35,1011.55 1014.65,1011.55"/>
        <lane id="2/1to1/1_1" index="1" speed="15.00" length="970.70" shape="1985.35,1008.25 1014.65,1008.25"/>
        <lane id="2/1to1/1_2" index="2" speed="15.00" length="970.70" shape="1985.35,1004.95 1014.65,1004.95"/>
        <lane id="2/1to1/1_3" index="3" speed="15.00" length="970.70" shape="1985.35,1001.65 1014.65,1001.65"/>
    </edge>
    <edge id="2/1to2/0" from="2/1" to="2/0" priority="-1">
        <lane id="2/1to2/0_0" index="0" speed="15.00" length="970.70" shape="1988.45,985.35 1988.45,14.65"/>
        <lane id="2/1to2/0_1" index="1" speed="15.00" length="970.70" shape="1991.75,985.35 1991.75,14.65"/>
        <lane id="2/1to2/0_2" index="2" speed="15.00" length="970.70" shape="1995.05,985.35 1995.05,14.65"/>
        <lane id="2/1to2/0_3" index="3" speed="15.00" length="970.70" shape="1998.35,985.35 1998.35,14.65"/>
    </edge>
    <edge id="2/1to2/2" from="2/1" to="2/2" priority="-1">
        <lane id="2/1to2/2_0" index="0" speed="15.00" length="970.70" shape="2011.55,1014.65 2011.55,1985.35"/>
        <lane id="2/1to2/2_1" index="1" speed="15.00" length="970.70" shape="2008.25,1014.65 2008.25,1985.35"/>
        <lane id="2/1to2/2_2" index="2" speed="15.00" length="970.70" shape="2004.95,1014.65 2004.95,1985.35"/>
        <lane id="2/1to2/2_3" index="3" speed="15.00" length="970.70" shape="2001.65,1014.65 2001.65,1985.35"/>
    </edge>
    <edge id="2/1to3/1" from="2/1" to="3/1" priority="-1">
        <lane id="2/1to3/1_0" index="0" speed="15.00" length="970.70" shape="2014.65,988.45 2985.35,988.45"/>
        <lane id="2/1to3/1_1" index="1" speed="15.00" length="970.70" shape="2014.65,991.75 2985.35,991.75"/>
        <lane id="2/1to3/1_2" index="2" speed="15.00" length="970.70" shape="2014.65,995.05 2985.35,995.05"/>
        <lane id="2/1to3/1_3" index="3" speed="15.00" length="970.70" shape="2014.65,998.35 2985.35,998.35"/>
    </edge>
    <edge id="2/2to1/2" from="2/2" to="1/2" priority="-1">
        <lane id="2/2to1/2_0" index="0" speed="15.00" length="970.70" shape="1985.35,2011.55 1014.65,2011.55"/>
        <lane id="2/2to1/2_1" index="1" speed="15.00" length="970.70" shape="1985.35,2008.25 1014.65,2008.25"/>
        <lane id="2/2to1/2_2" index="2" speed="15.00" length="970.70" shape="1985.35,2004.95 1014.65,2004.95"/>
        <lane id="2/2to1/2_3" index="3" speed="15.00" length="970.70" shape="1985.35,2001.65 1014.65,2001.65"/>
    </edge>
    <edge id="2/2to2/1" from="2/2" to="2/1" priority="-1">
        <lane id="2/2to2/1_0" index="0" speed="15.00" length="970.70" shape="1988.45,1985.35 1988.45,1014.65"/>
        <lane id="2/2to2/1_1" index="1" speed="15.00" length="970.70" shape="1991.75,1985.35 1991.75,1014.65"/>
        <lane id="2/2to2/1_2" index="2" speed="15.00" length="970.70" shape="1995.05,1985.35 1995.05,1014.65"/>
        <lane id="2/2to2/1_3" index="3" speed="15.00" length="970.70" shape="1998.35,1985.35 1998.35,1014.65"/>
    </edge>
    <edge id="2/2to2/3" from="2/2" to="2/3" priority="-1">
        <lane id="2/2to2/3_0" index="0" speed="15.00" length="970.70" shape="2011.55,2014.65 2011.55,2985.35"/>
        <lane id="2/2to2/3_1" index="1" speed="15.00" length="970.70" shape="2008.25,2014.65 2008.25,2985.35"/>
        <lane id="2/2to2/3_2" index="2" speed="15.00" length="970.70" shape="2004.95,2014.65 2004.95,2985.35"/>
        <lane id="2/2to2/3_3" index="3" speed="15.00" length="970.70" shape="2001.65,2014.65 2001.65,2985.35"/>
    </edge>
    <edge id="2/2to3/2" from="2/2" to="3/2" priority="-1">
        <lane id="2/2to3/2_0" index="0" speed="15.00" length="970.70" shape="2014.65,1988.45 2985.35,1988.45"/>
        <lane id="2/2to3/2_1" index="1" speed="15.00" length="970.70" shape="2014.65,1991.75 2985.35,1991.75"/>
        <lane id="2/2to3/2_2" index="2" speed="15.00" length="970.70" shape="2014.65,1995.05 2985.35,1995.05"/>
        <lane id="2/2to3/2_3" index="3" speed="15.00" length="970.70" shape="2014.65,1998.35 2985.35,1998.35"/>
    </edge>
    <edge id="2/3to1/3" from="2/3" to="1/3" priority="-1">
        <lane id="2/3to1/3_0" index="0" speed="15.00" length="970.70" shape="1985.35,3011.55 1014.65,3011.55"/>
        <lane id="2/3to1/3_1" index="1" speed="15.00" length="970.70" shape="1985.35,3008.25 1014.65,3008.25"/>
        <lane id="2/3to1/3_2" index="2" speed="15.00" length="970.70" shape="1985.35,3004.95 1014.65,3004.95"/>
        <lane id="2/3to1/3_3" index="3" speed="15.00" length="970.70" shape="1985.35,3001.65 1014.65,3001.65"/>
    </edge>
    <edge id="2/3to2/2" from="2/3" to="2/2" priority="-1">
        <lane id="2/3to2/2_0" index="0" speed="15.00" length="970.70" shape="1988.45,2985.35 1988.45,2014.65"/>
        <lane id="2/3to2/2_1" index="1" speed="15.00" length="970.70" shape="1991.75,2985.35 1991.75,2014.65"/>
        <lane id="2/3to2/2_2" index="2" speed="15.00" length="970.70" shape="1995.05,2985.35 1995.05,2014.65"/>
        <lane id="2/3to2/2_3" index="3" speed="15.00" length="970.70" shape="1998.35,2985.35 1998.35,2014.65"/>
    </edge>
    <edge id="2/3to3/3" from="2/3" to="3/3" priority="-1">
        <lane id="2/3to3/3_0" index="0" speed="15.00" length="972.20" shape="2014.65,2988.45 2986.85,2988.45"/>
        <lane id="2/3to3/3_1" index="1" speed="15.00" length="972.20" shape="2014.65,2991.75 2986.85,2991.75"/>
        <lane id="2/3to3/3_2" index="2" speed="15.00" length="972.20" shape="2014.65,2995.05 2986.85,2995.05"/>
        <lane id="2/3to3/3_3" index="3" speed="15.00" length="972.20" shape="2014.65,2998.35 2986.85,2998.35"/>
    </edge>
    <edge id="3/0to2/0" from="3/0" to="2/0" priority="-1">
        <lane id="3/0to2/0_0" index="0" speed="15.00" length="972.20" shape="2986.85,11.55 2014.65,11.55"/>
        <lane id="3/0to2/0_1" index="1" speed="15.00" length="972.20" shape="2986.85,8.25 2014.65,8.25"/>
        <lane id="3/0to2/0_2" index="2" speed="15.00" length="972.20" shape="2986.85,4.95 2014.65,4.95"/>
        <lane id="3/0to2/0_3" index="3" speed="15.00" length="972.20" shape="2986.85,1.65 2014.65,1.65"/>
    </edge>
    <edge id="3/0to3/1" from="3/0" to="3/1" priority="-1">
        <lane id="3/0to3/1_0" index="0" speed="15.00" length="972.20" shape="3011.55,13.15 3011.55,985.35"/>
        <lane id="3/0to3/1_1" index="1" speed="15.00" length="972.20" shape="3008.25,13.15 3008.25,985.35"/>
        <lane id="3/0to3/1_2" index="2" speed="15.00" length="972.20" shape="3004.95,13.15 3004.95,985.35"/>
        <lane id="3/0to3/1_3" index="3" speed="15.00" length="972.20" shape="3001.65,13.15 3001.65,985.35"/>
    </edge>
    <edge id="3/1to2/1" from="3/1" to="2/1" priority="-1">
        <lane id="3/1to2/1_0" index="0" speed="15.00" length="970.70" shape="2985.35,1011.55 2014.65,1011.55"/>
        <lane id="3/1to2/1_1" index="1" speed="15.00" length="970.70" shape="2985.35,1008.25 2014.65,1008.25"/>
        <lane id="3/1to2/1_2" index="2" speed="15.00" length="970.70" shape="2985.35,1004.95 2014.65,1004.95"/>
        <lane id="3/1to2/1_3" index="3" speed="15.00" length="970.70" shape="2985.35,1001.65 2014.65,1001.65"/>
    </edge>
    <edge id="3/1to3/0" from="3/1" to="3/0" priority="-1">
        <lane id="3/1to3/0_0" index="0" speed="15.00" length="972.20" shape="2988.45,985.35 2988.45,13.15"/>
        <lane id="3/1to3/0_1" index="1" speed="15.00" length="972.20" shape="2991.75,985.35 2991.75,13.15"/>
        <lane id="3/1to3/0_2" index="2" speed="15.00" length="972.20" shape="2995.05,985.35 2995.05,13.15"/>
        <lane id="3/1to3/0_3" index="3" speed="15.00" length="972.20" shape="2998.35,985.35 2998.35,13.15"/>
    </edge>
    <edge id="3/1to3/2" from="3/1" to="3/2" priority="-1">
        <lane id="3/1to3/2_0" index="0" speed="15.00" length="970.70" shape="3011.55,1014.65 3011.55,1985.35"/>
        <lane id="3/1to3/2_1" index="1" speed="15.00" length="970.70" shape="3008.25,1014.65 3008.25,1985.35"/>
        <lane id="3/1to3/2_2" index="2" speed="15.00" length="970.70" shape="3004.95,1014.65 3004.95,1985.35"/>
        <lane id="3/1to3/2_3" index="3" speed="15.00" length="970.70" shape="3001.65,1014.65 3001.65,1985.35"/>
    </edge>
    <edge id="3/2to2/2" from="3/2" to="2/2" priority="-1">
        <lane id="3/2to2/2_0" index="0" speed="15.00" length="970.70" shape="2985.35,2011.55 2014.65,2011.55"/>
        <lane id="3/2to2/2_1" index="1" speed="15.00" length="970.70" shape="2985.35,2008.25 2014.65,2008.25"/>
        <lane id="3/2to2/2_2" index="2" speed="15.00" length="970.70" shape="2985.35,2004.95 2014.65,2004.95"/>
        <lane id="3/2to2/2_3" index="3" speed="15.00" length="970.70" shape="2985.35,2001.65 2014.65,2001.65"/>
    </edge>
    <edge id="3/2to3/1" from="3/2" to="3/1" priority="-1">
        <lane id="3/2to3/1_0" index="0" speed="15.00" length="970.70" shape="2988.45,1985.35 2988.45,1014.65"/>
        <lane id="3/2to3/1_1" index="1" speed="15.00" length="970.70" shape="2991.75,1985.35 2991.75,1014.65"/>
        <lane id="3/2to3/1_2" index="2" speed="15.00" length="970.70" shape="2995.05,1985.35 2995.05,1014.65"/>
        <lane id="3/2to3/1_3" index="3" speed="15.00" length="970.70" shape="2998.35,1985.35 2998.35,1014.65"/>
    </edge>
    <edge id="3/2to3/3" from="3/2" to="3/3" priority="-1">
        <lane id="3/2to3/3_0" index="0" speed="15.00" length="972.20" shape="3011.55,2014.65 3011.55,2986.85"/>
        <lane id="3/2to3/3_1" index="1" speed="15.00" length="972.20" shape="3008.25,2014.65 3008.25,2986.85"/>
        <lane id="3/2to3/3_2" index="2" speed="15.00" length="972.20" shape="3004.95,2014.65 3004.95,2986.85"/>
        <lane id="3/2to3/3_3" index="3" speed="15.00" length="972.20" shape="3001.65,2014.65 3001.65,2986.85"/>
    </edge>
    <edge id="3/3to2/3" from="3/3" to="2/3" priority="-1">
        <lane id="3/3to2/3_0" index="0" speed="15.00" length="972.20" shape="2986.85,3011.55 2014.65,3011.55"/>
        <lane id="3/3to2/3_1" index="1" speed="15.00" length="972.20" shape="2986.85,3008.25 2014.65,3008.25"/>
        <lane id="3/3to2/3_2" index="2" speed="15.00" length="972.20" shape="2986.85,3004.95 2014.65,3004.95"/>
        <lane id="3/3to2/3_3" index="3" speed="15.00" length="972.20" shape="2986.85,3001.65 2014.65,3001.65"/>
    </edge>
    <edge id="3/3to3/2" from="3/3" to="3/2" priority="-1">
        <lane id="3/3to3/2_0" index="0" speed="15.00" length="972.20" shape="2988.45,2986.85 2988.45,2014.65"/>
        <lane id="3/3to3/2_1" index="1" speed="15.00" length="972.20" shape="2991.75,2986.85 2991.75,2014.65"/>
        <lane id="3/3to3/2_2" index="2" speed="15.00" length="972.20" shape="2995.05,2986.85 2995.05,2014.65"/>
        <lane id="3/3to3/2_3" index="3" speed="15.00" length="972.20" shape="2998.35,2986.85 2998.35,2014.65"/>
    </edge>

    <junction id="0/0" type="priority" x="0.00" y="0.00" incLanes="0/1to0/0_0 0/1to0/0_1 0/1to0/0_2 0/1to0/0_3 1/0to0/0_0 1/0to0/0_1 1/0to0/0_2 1/0to0/0_3" intLanes="" shape="-13.15,13.15 13.15,13.15 13.15,-13.15">
        <request index="0" response="0000000000" foes="1000000000"/>
        <request index="1" response="0000000000" foes="1000000000"/>
        <request index="2" response="0000000000" foes="1000000000"/>
        <request index="3" response="0000000000" foes="1000000000"/>
        <request index="4" response="0111100000" foes="0111100000"/>
        <request index="5" response="0000000000" foes="0000010000"/>
        <request index="6" response="0000000000" foes="0000010000"/>
        <request index="7" response="0000000000" foes="0000010000"/>
        <request index="8" response="0000000000" foes="0000010000"/>
        <request index="9" response="0000001111" foes="0000001111"/>
    </junction>
    <junction id="0/1" type="priority" x="0.00" y="1000.00" incLanes="0/2to0/1_0 0/2to0/1_1 0/2to0/1_2 0/2to0/1_3 1/1to0/1_0 1/1to0/1_1 1/1to0/1_2 1/1to0/1_3 0/0to0/1_0 0/0to0/1_1 0/0to0/1_2 0/0to0/1_3" intLanes="" shape="-13.15,1014.65 13.15,1014.65 14.65,1013.15 14.65,986.85 13.15,985.35 -13.15,985.35">
        <request index="0" response="0000000000000000000" foes="1000000011000000000"/>
        <request index="1" response="0000000000000000000" foes="1000000011000000000"/>
        <request index="2" response="0000000000000000000" foes="1000000011000000000"/>
        <request index="3" response="0111111000000000000" foes="0111111111000000000"/>
        <request index="4" response="0111111000000000000" foes="0111111111000000000"/>
        <request index="5" response="0111100000111000000" foes="0111100000111000000"/>
        <request index="6" response="0111100000000000000" foes="0111100000000100000"/>
        <request index="7" response="0111100000000000000" foes="0111100000000100000"/>
        <request index="8" response="0111100000000000000" foes="0111100000000100000"/>
        <request index="9" response="0111100000000011111" foes="1111100000000011111"/>
        <request index="10" response="0111100000000011111" foes="1111100000000011111"/>
        <request index="11" response="0000011000000011000" foes="0000011000000011000"/>
        <request index="12" response="0000000000000000000" foes="0000000100000011000"/>
        <request index="13" response="0000000000000000000" foes="0000000100000011000"/>
        <request index="14" response="0000000000000000000" foes="0000000011111111000"/>
        <request index="15" response="0000000000000000000" foes="0000000011111111000"/>
        <request index="16" response="0000000000000000000" foes="0000000011111111000"/>
        <request index="17" response="0000000000000000000" foes="0000000011111111000"/>
        <request index="18" response="0000000011000000111" foes="0000000011000000111"/>
    </junction>
    <junction id="0/2" type="priority" x="0.00" y="2000.00" incLanes="0/3to0/2_0 0/3to0/2_1 0/3to0/2_2 0/3to0/2_3 1/2to0/2_0 1/2to0/2_1 1/2to0/2_2 1/2to0/2_3 0/1to0/2_0 0/1to0/2_1 0/1to0/2_2 0/1to0/2_3" intLanes="" shape="-13.15,2014.65 13.15,2014.65 14.65,2013.15 14.65,1986.85 13.15,1985.35 -13.15,1985.35">
        <request index="0" response="0000000000000000000" foes="1000000011000000000"/>
        <request index="1" response="0000000000000000000" foes="1000000011000000000"/>
        <request index="2" response="0000000000000000000" foes="1000000011000000000"/>
        <request index="3" response="0111111000000000000" foes="0111111111000000000"/>
        <request index="4" response="0111111000000000000" foes="0111111111000000000"/>
        <request index="5" response="0111100000111000000" foes="0111100000111000000"/>
        <request index="6" response="0111100000000000000" foes="0111100000000100000"/>
        <request index="7" response="0111100000000000000" foes="0111100000000100000"/>
        <request index="8" response="0111100000000000000" foes="0111100000000100000"/>
        <request index="9" response="0111100000000011111" foes="1111100000000011111"/>