<?xml version="1.0" encoding="UTF-8"?>

<!-- generated on 12/16/16 14:41:46 by SUMO netgenerate Version 0.24.0
<?xml version="1.0" encoding="UTF-8"?>

<configuration xmlns:xsi="http://www.w3.org/2001/XMLSchema-instance" xsi:noNamespaceSchemaLocation="http://sumo.dlr.de/xsd/netgenerateConfiguration.xsd">

    <grid_network>
        <grid value="true"/>
        <grid.x-number value="6"/>
        <grid.y-number value="6"/>
        <grid.x-length value="800"/>
        <grid.y-length value="800"/>
    </grid_network>

    <output>
        <output-file value="input_net.net.xml"/>
    </output>

    <building_defaults>
        <default.lanenumber value="4"/>
        <default.speed value="12"/>
    </building_defaults>

</configuration>
-->

<net version="0.13" xmlns:xsi="http://www.w3.org/2001/XMLSchema-instance" xsi:noNamespaceSchemaLocation="http://sumo.dlr.de/xsd/net_file.xsd">

    <location netOffset="0.00,0.00" convBoundary="0.00,0.00,4000.00,4000.00" origBoundary="0.00,0.00,4000.00,4000.00" projParameter="!"/>

    <edge id=":0/0_0" function="internal">
        <lane id=":0/0_0_0" index="0" speed="12.00" length="31.85" shape="-11.55,13.15 -10.01,2.34 -5.38,-5.37 2.34,-10.01 13.15,-11.55"/>
        <lane id=":0/0_0_1" index="1" speed="12.00" length="31.85" shape="-8.25,13.15 -6.91,3.79 -2.90,-2.90 3.79,-6.91 13.15,-8.25"/>
        <lane id=":0/0_0_2" index="2" speed="12.00" length="31.85" shape="-4.95,13.15 -3.82,5.23 -0.42,-0.43 5.23,-3.82 13.15,-4.95"/>
        <lane id=":0/0_0_3" index="3" speed="12.00" length="31.85" shape="-1.65,13.15 -0.72,6.68 2.05,2.05 6.68,-0.72 13.15,-1.65"/>
    </edge>
    <edge id=":0/0_4" function="internal">
        <lane id=":0/0_4_0" index="0" speed="12.00" length="2.69" shape="-1.65,13.15 -0.83,11.91 -0.00,11.50 0.25,11.63"/>
    </edge>
    <edge id=":0/0_10" function="internal">
        <lane id=":0/0_10_0" index="0" speed="12.00" length="2.13" shape="0.25,11.63 0.82,11.91 1.65,13.15"/>
    </edge>
    <edge id=":0/0_5" function="internal">
        <lane id=":0/0_5_0" index="0" speed="12.00" length="10.56" shape="13.15,11.55 12.45,11.65 11.95,11.95 11.65,12.45 11.55,13.15"/>
        <lane id=":0/0_5_1" index="1" speed="12.00" length="10.56" shape="13.15,8.25 11.01,8.56 9.47,9.48 8.56,11.01 8.25,13.15"/>
        <lane id=":0/0_5_2" index="2" speed="12.00" length="10.56" shape="13.15,4.95 9.56,5.46 7.00,7.00 5.46,9.56 4.95,13.15"/>
        <lane id=":0/0_5_3" index="3" speed="12.00" length="10.56" shape="13.15,1.65 8.12,2.37 4.52,4.53 2.37,8.12 1.65,13.15"/>
    </edge>
    <edge id=":0/0_9" function="internal">
        <lane id=":0/0_9_0" index="0" speed="12.00" length="2.20" shape="13.15,1.65 11.91,0.83 11.59,0.19"/>
    </edge>
    <edge id=":0/0_11" function="internal">
        <lane id=":0/0_11_0" index="0" speed="12.00" length="2.62" shape="11.59,0.19 11.50,0.00 11.91,-0.82 13.15,-1.65"/>
    </edge>
    <edge id=":0/1_0" function="internal">
        <lane id=":0/1_0_0" index="0" speed="12.00" length="29.30" shape="-11.55,814.65 -11.55,805.95 -11.55,800.00 -11.55,794.05 -11.55,785.35"/>
        <lane id=":0/1_0_1" index="1" speed="12.00" length="29.30" shape="-8.25,814.65 -8.25,805.95 -8.25,800.00 -8.25,794.05 -8.25,785.35"/>
        <lane id=":0/1_0_2" index="2" speed="12.00" length="29.30" shape="-4.95,814.65 -4.95,805.95 -4.95,800.00 -4.95,794.05 -4.95,785.35"/>
    </edge>
    <edge id=":0/1_3" function="internal">
        <lane id=":0/1_3_0" index="0" speed="12.00" length="9.34" shape="-1.65,814.65 -0.63,806.07 0.05,804.71"/>
        <lane id=":0/1_3_1" index="1" speed="12.00" length="9.34" shape="-1.65,814.65 -0.63,807.52 0.05,806.38"/>
    </edge>
    <edge id=":0/1_5" function="internal">
        <lane id=":0/1_5_0" index="0" speed="12.00" length="2.41" shape="-1.65,814.65 -0.83,813.41 -0.00,813.00"/>
    </edge>
    <edge id=":0/1_19" function="internal">
        <lane id=":0/1_19_0" index="0" speed="12.00" length="18.84" shape="0.05,804.71 2.42,799.95 7.52,796.27 14.65,795.05"/>
    </edge>
    <edge id=":0/1_20" function="internal">
        <lane id=":0/1_20_0" index="0" speed="12.00" length="17.76" shape="0.05,806.38 2.42,802.43 7.52,799.37 14.65,798.35"/>
    </edge>
    <edge id=":0/1_21" function="internal">
        <lane id=":0/1_21_0" index="0" speed="12.00" length="2.41" shape="-0.00,813.00 0.82,813.41 1.65,814.65"/>
    </edge>
    <edge id=":0/1_6" function="internal">
        <lane id=":0/1_6_0" index="0" speed="12.00" length="9.47" shape="14.65,811.55 13.29,811.74 12.33,812.32 11.74,813.29 11.55,814.65"/>
        <lane id=":0/1_6_1" index="1" speed="12.00" length="9.47" shape="14.65,808.25 11.85,808.65 9.85,809.85 8.65,811.85 8.25,814.65"/>
        <lane id=":0/1_6_2" index="2" speed="12.00" length="9.47" shape="14.65,808.25 10.41,808.65 7.38,809.85 5.56,811.85 4.95,814.65"/>
    </edge>
    <edge id=":0/1_9" function="internal">
        <lane id=":0/1_9_0" index="0" speed="12.00" length="28.95" shape="14.65,804.95 6.07,803.73 -0.05,800.05 -3.73,793.93 -4.95,785.35"/>
        <lane id=":0/1_9_1" index="1" speed="12.00" length="28.95" shape="14.65,801.65 7.52,800.63 2.43,797.57 -0.63,792.48 -1.65,785.35"/>
    </edge>
    <edge id=":0/1_11" function="internal">
        <lane id=":0/1_11_0" index="0" speed="12.00" length="4.82" shape="14.65,801.65 13.41,800.82 13.00,800.00 13.41,799.17 14.65,798.35"/>
    </edge>
    <edge id=":0/1_12" function="internal">
        <lane id=":0/1_12_0" index="0" speed="12.00" length="6.42" shape="11.55,785.35 11.74,786.71 12.32,787.68 13.29,788.26 14.65,788.45"/>
        <lane id=":0/1_12_1" index="1" speed="12.00" length="6.42" shape="11.55,785.35 11.74,788.15 12.32,790.15 13.29,791.35 14.65,791.75"/>
    </edge>
    <edge id=":0/1_14" function="internal">
        <lane id=":0/1_14_0" index="0" speed="12.00" length="29.30" shape="11.55,785.35 11.55,794.05 11.55,800.00 11.55,805.95 11.55,814.65"/>
        <lane id=":0/1_14_1" index="1" speed="12.00" length="29.30" shape="8.25,785.35 8.25,794.05 8.25,800.00 8.25,805.95 8.25,814.65"/>
        <lane id=":0/1_14_2" index="2" speed="12.00" length="29.30" shape="4.95,785.35 4.95,794.05 4.95,800.00 4.95,805.95 4.95,814.65"/>
        <lane id=":0/1_14_3" index="3" speed="12.00" length="29.30" shape="1.65,785.35 1.65,794.05 1.65,800.00 1.65,805.95 1.65,814.65"/>
    </edge>
    <edge id=":0/1_18" function="internal">
        <lane id=":0/1_18_0" index="0" speed="12.00" length="2.41" shape="1.65,785.35 0.83,786.59 0.00,787.00"/>
    </edge>
    <edge id=":0/1_22" function="internal">
        <lane id=":0/1_22_0" index="0" speed="12.00" length="2.41" shape="0.00,787.00 -0.82,786.59 -1.65,785.35"/>
    </edge>
    <edge id=":0/2_0" function="internal">
        <lane id=":0/2_0_0" index="0" speed="12.00" length="29.30" shape="-11.55,1614.65 -11.55,1605.95 -11.55,1600.00 -11.55,1594.05 -11.55,1585.35"/>
        <lane id=":0/2_0_1" index="1" speed="12.00" length="29.30" shape="-8.25,1614.65 -8.25,1605.95 -8.25,1600.00 -8.25,1594.05 -8.25,1585.35"/>
        <lane id=":0/2_0_2" index="2" speed="12.00" length="29.30" shape="-4.95,1614.65 -4.95,1605.95 -4.95,1600.00 -4.95,1594.05 -4.95,1585.35"/>
    </edge>
    <edge id=":0/2_3" function="internal">
        <lane id=":0/2_3_0" index="0" speed="12.00" length="9.34" shape="-1.65,1614.65 -0.63,1606.08 0.05,1604.71"/>
        <lane id=":0/2_3_1" index="1" speed="12.00" length="9.34" shape="-1.65,1614.65 -0.63,1607.52 0.05,1606.38"/>
    </edge>
    <edge id=":0/2_5" function="internal">
        <lane id=":0/2_5_0" index="0" speed="12.00" length="2.41" shape="-1.65,1614.65 -0.83,1613.41 -0.00,1613.00"/>
    </edge>
    <edge id=":0/2_19" function="internal">
        <lane id=":0/2_19_0" index="0" speed="12.00" length="18.84" shape="0.05,1604.71 2.42,1599.95 7.52,1596.28 14.65,1595.05"/>
    </edge>
    <edge id=":0/2_20" function="internal">
        <lane id=":0/2_20_0" index="0" speed="12.00" length="17.76" shape="0.05,1606.38 2.42,1602.42 7.52,1599.37 14.65,1598.35"/>
    </edge>
    <edge id=":0/2_21" function="internal">
        <lane id=":0/2_21_0" index="0" speed="12.00" length="2.41" shape="-0.00,1613.00 0.82,1613.41 1.65,1614.65"/>
    </edge>
    <edge id=":0/2_6" function="internal">
        <lane id=":0/2_6_0" index="0" speed="12.00" length="9.47" shape="14.65,1611.55 13.29,1611.74 12.32,1612.32 11.74,1613.29 11.55,1614.65"/>
        <lane id=":0/2_6_1" index="1" speed="12.00" length="9.47" shape="14.65,1608.25 11.85,1608.65 9.85,1609.85 8.65,1611.85 8.25,1614.65"/>
        <lane id=":0/2_6_2" index="2" speed="12.00" length="9.47" shape="14.65,1608.25 10.41,1608.65 7.38,1609.85 5.56,1611.85 4.95,1614.65"/>
    </edge>
    <edge id=":0/2_9" function="internal">
        <lane id=":0/2_9_0" index="0" speed="12.00" length="28.95" shape="14.65,1604.95 6.07,1603.72 -0.05,1600.05 -3.73,1593.93 -4.95,1585.35"/>
        <lane id=":0/2_9_1" index="1" speed="12.00" length="28.95" shape="14.65,1601.65 7.52,1600.63 2.43,1597.58 -0.63,1592.48 -1.65,1585.35"/>
    </edge>
    <edge id=":0/2_11" function="internal">
        <lane id=":0/2_11_0" index="0" speed="12.00" length="4.82" shape="14.65,1601.65 13.41,1600.82 13.00,1600.00 13.41,1599.18 14.65,1598.35"/>
    </edge>
    <edge id=":0/2_12" function="internal">
        <lane id=":0/2_12_0" index="0" speed="12.00" length="6.42" shape="11.55,1585.35 11.74,1586.71 12.32,1587.68 13.29,1588.26 14.65,1588.45"/>
        <lane id=":0/2_12_1" index="1" speed="12.00" length="6.42" shape="11.55,1585.35 11.74,1588.15 12.32,1590.15 13.29,1591.35 14.65,1591.75"/>
    </edge>
    <edge id=":0/2_14" function="internal">
        <lane id=":0/2_14_0" index="0" speed="12.00" length="29.30" shape="11.55,1585.35 11.55,1594.05 11.55,1600.00 11.55,1605.95 11.55,1614.65"/>
        <lane id=":0/2_14_1" index="1" speed="12.00" length="29.30" shape="8.25,1585.35 8.25,1594.05 8.25,1600.00 8.25,1605.95 8.25,1614.65"/>
        <lane id=":0/2_14_2" index="2" speed="12.00" length="29.30" shape="4.95,1585.35 4.95,1594.05 4.95,1600.00 4.95,1605.95 4.95,1614.65"/>
        <lane id=":0/2_14_3" index="3" speed="12.00" length="29.30" shape="1.65,1585.35 1.65,1594.05 1.65,1600.00 1.65,1605.95 1.65,1614.65"/>
    </edge>
    <edge id=":0/2_18" function="internal">
        <lane id=":0/2_18_0" index="0" speed="12.00" length="2.41" shape="1.65,1585.35 0.83,1586.59 0.00,1587.00"/>
    </edge>
    <edge id=":0/2_22" function="internal">
        <lane id=":0/2_22_0" index="0" speed="12.00" length="2.41" shape="0.00,1587.00 -0.82,1586.59 -1.65,1585.35"/>
    </edge>
    <edge id=":0/3_0" function="internal">
        <lane id=":0/3_0_0" index="0" speed="12.00" length="29.30" shape="-11.55,2414.65 -11.55,2405.95 -11.55,2400.00 -11.55,2394.05 -11.55,2385.35"/>
        <lane id=":0/3_0_1" index="1" speed="12.00" length="29.30" shape="-8.25,2414.65 -8.25,2405.95 -8.25,2400.00 -8.25,2394.05 -8.25,2385.35"/>
        <lane id=":0/3_0_2" index="2" speed="12.00" length="29.30" shape="-4.95,2414.65 -4.95,2405.95 -4.95,2400.00 -4.95,2394.05 -4.95,2385.35"/>
    </edge>
    <edge id=":0/3_3" function="internal">
        <lane id=":0/3_3_0" index="0" speed="12.00" length="9.34" shape="-1.65,2414.65 -0.63,2406.08 0.05,2404.71"/>
        <lane id=":0/3_3_1" index="1" speed="12.00" length="9.34" shape="-1.65,2414.65 -0.63,2407.52 0.05,2406.38"/>
    </edge>
    <edge id=":0/3_5" function="internal">
        <lane id=":0/3_5_0" index="0" speed="12.00" length="2.41" shape="-1.65,2414.65 -0.83,2413.41 -0.00,2413.00"/>
    </edge>
    <edge id=":0/3_19" function="internal">
        <lane id=":0/3_19_0" index="0" speed="12.00" length="18.84" shape="0.05,2404.71 2.42,2399.95 7.52,2396.28 14.65,2395.05"/>
    </edge>
    <edge id=":0/3_20" function="internal">
        <lane id=":0/3_20_0" index="0" speed="12.00" length="17.76" shape="0.05,2406.38 2.42,2402.43 7.52,2399.37 14.65,2398.35"/>
    </edge>
    <edge id=":0/3_21" function="internal">
        <lane id=":0/3_21_0" index="0" speed="12.00" length="2.41" shape="-0.00,2413.00 0.82,2413.41 1.65,2414.65"/>
    </edge>
    <edge id=":0/3_6" function="internal">
        <lane id=":0/3_6_0" index="0" speed="12.00" length="9.47" shape="14.65,2411.55 13.29,2411.74 12.32,2412.33 11.74,2413.29 11.55,2414.65"/>
        <lane id=":0/3_6_1" index="1" speed="12.00" length="9.47" shape="14.65,2408.25 11.85,2408.65 9.85,2409.85 8.65,2411.85 8.25,2414.65"/>
        <lane id=":0/3_6_2" index="2" speed="12.00" length="9.47" shape="14.65,2408.25 10.41,2408.65 7.38,2409.85 5.56,2411.85 4.95,2414.65"/>
    </edge>
    <edge id=":0/3_9" function="internal">
        <lane id=":0/3_9_0" index="0" speed="12.00" length="28.95" shape="14.65,2404.95 6.07,2403.72 -0.05,2400.05 -3.73,2393.92 -4.95,2385.35"/>
        <lane id=":0/3_9_1" index="1" speed="12.00" length="28.95" shape="14.65,2401.65 7.52,2400.63 2.43,2397.58 -0.63,2392.48 -1.65,2385.35"/>
    </edge>
    <edge id=":0/3_11" function="internal">
        <lane id=":0/3_11_0" index="0" speed="12.00" length="4.82" shape="14.65,2401.65 13.41,2400.83 13.00,2400.00 13.41,2399.18 14.65,2398.35"/>
    </edge>
    <edge id=":0/3_12" function="internal">
        <lane id=":0/3_12_0" index="0" speed="12.00" length="6.42" shape="11.55,2385.35 11.74,2386.71 12.32,2387.68 13.29,2388.26 14.65,2388.45"/>
        <lane id=":0/3_12_1" index="1" speed="12.00" length="6.42" shape="11.55,2385.35 11.74,2388.15 12.32,2390.15 13.29,2391.35 14.65,2391.75"/>
    </edge>
    <edge id=":0/3_14" function="internal">
        <lane id=":0/3_14_0" index="0" speed="12.00" length="29.30" shape="11.55,2385.35 11.55,2394.05 11.55,2400.00 11.55,2405.95 11.55,2414.65"/>
        <lane id=":0/3_14_1" index="1" speed="12.00" length="29.30" shape="8.25,2385.35 8.25,2394.05 8.25,2400.00 8.25,2405.95 8.25,2414.65"/>
        <lane id=":0/3_14_2" index="2" speed="12.00" length="29.30" shape="4.95,2385.35 4.95,2394.05 4.95,2400.00 4.95,2405.95 4.95,2414.65"/>
        <lane id=":0/3_14_3" index="3" speed="12.00" length="29.30" shape="1.65,2385.35 1.65,2394.05 1.65,2400.00 1.65,2405.95 1.65,2414.65"/>
    </edge>
    <edge id=":0/3_18" function="internal">
        <lane id=":0/3_18_0" index="0" speed="12.00" length="2.41" shape="1.65,2385.35 0.83,2386.59 0.00,2387.00"/>
    </edge>
    <edge id=":0/3_22" function="internal">
        <lane id=":0/3_22_0" index="0" speed="12.00" length="2.41" shape="0.00,2387.00 -0.82,2386.59 -1.65,2385.35"/>
    </edge>
    <edge id=":0/4_0" function="internal">
        <lane id=":0/4_0_0" index="0" speed="12.00" length="29.30" shape="-11.55,3214.65 -11.55,3205.95 -11.55,3200.00 -11.55,3194.05 -11.55,3185.35"/>
        <lane id=":0/4_0_1" index="1" speed="12.00" length="29.30" shape="-8.25,3214.65 -8.25,3205.95 -8.25,3200.00 -8.25,3194.05 -8.25,3185.35"/>
        <lane id=":0/4_0_2" index="2" speed="12.00" length="29.30" shape="-4.95,3214.65 -4.95,3205.95 -4.95,3200.00 -4.95,3194.05 -4.95,3185.35"/>
    </edge>
    <edge id=":0/4_3" function="internal">
        <lane id=":0/4_3_0" index="0" speed="12.00" length="9.34" shape="-1.65,3214.65 -0.63,3206.08 0.05,3204.71"/>
        <lane id=":0/4_3_1" index="1" speed="12.00" length="9.34" shape="-1.65,3214.65 -0.63,3207.52 0.05,3206.38"/>
    </edge>
    <edge id=":0/4_5" function="internal">
        <lane id=":0/4_5_0" index="0" speed="12.00" length="2.41" shape="-1.65,3214.65 -0.83,3213.41 -0.00,3213.00"/>
    </edge>
    <edge id=":0/4_19" function="internal">
        <lane id=":0/4_19_0" index="0" speed="12.00" length="18.84" shape="0.05,3204.71 2.42,3199.95 7.52,3196.28 14.65,3195.05"/>
    </edge>
    <edge id=":0/4_20" function="internal">
        <lane id=":0/4_20_0" index="0" speed="12.00" length="17.76" shape="0.05,3206.38 2.42,3202.43 7.52,3199.37 14.65,3198.35"/>
    </edge>
    <edge id=":0/4_21" function="internal">
        <lane id=":0/4_21_0" index="0" speed="12.00" length="2.41" shape="-0.00,3213.00 0.82,3213.41 1.65,3214.65"/>
    </edge>
    <edge id=":0/4_6" function="internal">
        <lane id=":0/4_6_0" index="0" speed="12.00" length="9.47" shape="14.65,3211.55 13.29,3211.74 12.32,3212.33 11.74,3213.29 11.55,3214.65"/>
        <lane id=":0/4_6_1" index="1" speed="12.00" length="9.47" shape="14.65,3208.25 11.85,3208.65 9.85,3209.85 8.65,3211.85 8.25,3214.65"/>
        <lane id=":0/4_6_2" index="2" speed="12.00" length="9.47" shape="14.65,3208.25 10.41,3208.65 7.37,3209.85 5.56,3211.85 4.95,3214.65"/>
    </edge>
    <edge id=":0/4_9" function="internal">
        <lane id=":0/4_9_0" index="0" speed="12.00" length="28.95" shape="14.65,3204.95 6.07,3203.72 -0.05,3200.05 -3.73,3193.92 -4.95,3185.35"/>
        <lane id=":0/4_9_1" index="1" speed="12.00" length="28.95" shape="14.65,3201.65 7.52,3200.63 2.43,3197.58 -0.63,3192.48 -1.65,3185.35"/>
    </edge>
    <edge id=":0/4_11" function="internal">
        <lane id=":0/4_11_0" index="0" speed="12.00" length="4.82" shape="14.65,3201.65 13.41,3200.83 13.00,3200.00 13.41,3199.18 14.65,3198.35"/>
    </edge>
    <edge id=":0/4_12" function="internal">
        <lane id=":0/4_12_0" index="0" speed="12.00" length="6.42" shape="11.55,3185.35 11.74,3186.71 12.32,3187.68 13.29,3188.26 14.65,3188.45"/>
        <lane id=":0/4_12_1" index="1" speed="12.00" length="6.42" shape="11.55,3185.35 11.74,3188.15 12.32,3190.15 13.29,3191.35 14.65,3191.75"/>
    </edge>
    <edge id=":0/4_14" function="internal">
        <lane id=":0/4_14_0" index="0" speed="12.00" length="29.30" shape="11.55,3185.35 11.55,3194.05 11.55,3200.00 11.55,3205.95 11.55,3214.65"/>
        <lane id=":0/4_14_1" index="1" speed="12.00" length="29.30" shape="8.25,3185.35 8.25,3194.05 8.25,3200.00 8.25,3205.95 8.25,3214.65"/>
        <lane id=":0/4_14_2" index="2" speed="12.00" length="29.30" shape="4.95,3185.35 4.95,3194.05 4.95,3200.00 4.95,3205.95 4.95,3214.65"/>
        <lane id=":0/4_14_3" index="3" speed="12.00" length="29.30" shape="1.65,3185.35 1.65,3194.05 1.65,3200.00 1.65,3205.95 1.65,3214.65"/>
    </edge>
    <edge id=":0/4_18" function="internal">
        <lane id=":0/4_18_0" index="0" speed="12.00" length="2.41" shape="1.65,3185.35 0.83,3186.59 0.00,3187.00"/>
    </edge>
    <edge id=":0/4_22" function="internal">
        <lane id=":0/4_22_0" index="0" speed="12.00" length="2.41" shape="0.00,3187.00 -0.82,3186.59 -1.65,3185.35"/>
    </edge>
    <edge id=":0/5_0" function="internal">
        <lane id=":0/5_0_0" index="0" speed="12.00" length="31.85" shape="13.15,4011.55 2.34,4010.01 -5.37,4005.38 -10.01,3997.66 -11.55,3986.85"/>
        <lane id=":0/5_0_1" index="1" speed="12.00" length="31.85" shape="13.15,4008.25 3.79,4006.91 -2.90,4002.90 -6.91,3996.21 -8.25,3986.85"/>
        <lane id=":0/5_0_2" index="2" speed="12.00" length="31.85" shape="13.15,4004.95 5.23,4003.82 -0.43,4000.42 -3.82,3994.77 -4.95,3986.85"/>
        <lane id=":0/5_0_3" index="3" speed="12.00" length="31.85" shape="13.15,4001.65 6.67,4000.72 2.05,3997.95 -0.73,3993.33 -1.65,3986.85"/>
    </edge>
    <edge id=":0/5_4" function="internal">
        <lane id=":0/5_4_0" index="0" speed="12.00" length="2.69" shape="13.15,4001.65 11.91,4000.82 11.50,4000.00 11.63,3999.75"/>
    </edge>
    <edge id=":0/5_10" function="internal">
        <lane id=":0/5_10_0" index="0" speed="12.00" length="2.13" shape="11.63,3999.75 11.91,3999.18 13.15,3998.35"/>
    </edge>
    <edge id=":0/5_5" function="internal">
        <lane id=":0/5_5_0" index="0" speed="12.00" length="10.56" shape="11.55,3986.85 11.65,3987.55 11.95,3988.05 12.45,3988.35 13.15,3988.45"/>
        <lane id=":0/5_5_1" index="1" speed="12.00" length="10.56" shape="8.25,3986.85 8.56,3988.99 9.48,3990.53 11.01,3991.44 13.15,3991.75"/>
        <lane id=":0/5_5_2" index="2" speed="12.00" length="10.56" shape="4.95,3986.85 5.46,3990.44 7.00,3993.00 9.56,3994.54 13.15,3995.05"/>
        <lane id=":0/5_5_3" index="3" speed="12.00" length="10.56" shape="1.65,3986.85 2.37,3991.88 4.53,3995.47 8.12,3997.63 13.15,3998.35"/>
    </edge>
    <edge id=":0/5_9" function="internal">
        <lane id=":0/5_9_0" index="0" speed="12.00" length="2.20" shape="1.65,3986.85 0.83,3988.09 0.19,3988.41"/>
    </edge>
    <edge id=":0/5_11" function="internal">
        <lane id=":0/5_11_0" index="0" speed="12.00" length="2.62" shape="0.19,3988.41 0.00,3988.50 -0.82,3988.09 -1.65,3986.85"/>
    </edge>
    <edge id=":1/0_0" function="internal">
        <lane id=":1/0_0_0" index="0" speed="12.00" length="9.47" shape="788.45,14.65 788.26,13.29 787.68,12.32 786.71,11.74 785.35,11.55"/>
        <lane id=":1/0_0_1" index="1" speed="12.00" length="9.47" shape="791.75,14.65 791.35,11.85 790.15,9.85 788.15,8.65 785.35,8.25"/>
        <lane id=":1/0_0_2" index="2" speed="12.00" length="9.47" shape="791.75,14.65 791.35,10.41 790.15,7.37 788.15,5.56 785.35,4.95"/>
    </edge>
    <edge id=":1/0_3" function="internal">
        <lane id=":1/0_3_0" index="0" speed="12.00" length="28.95" shape="795.05,14.65 796.27,6.07 799.95,-0.05 806.07,-3.73 814.65,-4.95"/>
        <lane id=":1/0_3_1" index="1" speed="12.00" length="28.95" shape="798.35,14.65 799.37,7.52 802.43,2.43 807.52,-0.63 814.65,-1.65"/>
    </edge>
    <edge id=":1/0_5" function="internal">
        <lane id=":1/0_5_0" index="0" speed="12.00" length="4.82" shape="798.35,14.65 799.18,13.41 800.00,13.00 800.83,13.41 801.65,14.65"/>
    </edge>
    <edge id=":1/0_6" function="internal">
        <lane id=":1/0_6_0" index="0" speed="12.00" length="6.42" shape="814.65,11.55 813.29,11.74 812.33,12.32 811.74,13.29 811.55,14.65"/>
        <lane id=":1/0_6_1" index="1" speed="12.00" length="6.42" shape="814.65,11.55 811.85,11.74 809.85,12.32 808.65,13.29 808.25,14.65"/>
    </edge>
    <edge id=":1/0_8" function="internal">
        <lane id=":1/0_8_0" index="0" speed="12.00" length="29.30" shape="814.65,11.55 805.95,11.55 800.00,11.55 794.05,11.55 785.35,11.55"/>
        <lane id=":1/0_8_1" index="1" speed="12.00" length="29.30" shape="814.65,8.25 805.95,8.25 800.00,8.25 794.05,8.25 785.35,8.25"/>
        <lane id=":1/0_8_2" index="2" speed="12.00" length="29.30" shape="814.65,4.95 805.95,4.95 800.00,4.95 794.05,4.95 785.35,4.95"/>
        <lane id=":1/0_8_3" index="3" speed="12.00" length="29.30" shape="814.65,1.65 805.95,1.65 800.00,1.65 794.05,1.65 785.35,1.65"/>
    </edge>
    <edge id=":1/0_12" function="internal">
        <lane id=":1/0_12_0" index="0" speed="12.00" length="2.41" shape="814.65,1.65 813.41,0.83 813.00,0.00"/>
    </edge>
    <edge id=":1/0_19" function="internal">
        <lane id=":1/0_19_0" index="0" speed="12.00" length="2.41" shape="813.00,0.00 813.41,-0.82 814.65,-1.65"/>
    </edge>
    <edge id=":1/0_13" function="internal">
        <lane id=":1/0_13_0" index="0" speed="12.00" length="29.30" shape="785.35,-11.55 794.05,-11.55 800.00,-11.55 805.95,-11.55 814.65,-11.55"/>
        <lane id=":1/0_13_1" index="1" speed="12.00" length="29.30" shape="785.35,-8.25 794.05,-8.25 800.00,-8.25 805.95,-8.25 814.65,-8.25"/>
        <lane id=":1/0_13_2" index="2" speed="12.00" length="29.30" shape="785.35,-4.95 794.05,-4.95 800.00,-4.95 805.95,-4.95 814.65,-4.95"/>
    </edge>
    <edge id=":1/0_16" function="internal">
        <lane id=":1/0_16_0" index="0" speed="12.00" length="9.34" shape="785.35,-1.65 793.93,-0.63 795.29,0.05"/>
        <lane id=":1/0_16_1" index="1" speed="12.00" length="9.34" shape="785.35,-1.65 792.48,-0.63 793.62,0.05"/>
    </edge>
    <edge id=":1/0_18" function="internal">
        <lane id=":1/0_18_0" index="0" speed="12.00" length="2.41" shape="785.35,-1.65 786.59,-0.83 787.00,-0.00"/>
    </edge>
    <edge id=":1/0_20" function="internal">
        <lane id=":1/0_20_0" index="0" speed="12.00" length="18.84" shape="795.29,0.05 800.05,2.42 803.73,7.52 804.95,14.65"/>
    </edge>
    <edge id=":1/0_21" function="internal">
        <lane id=":1/0_21_0" index="0" speed="12.00" length="17.76" shape="793.62,0.05 797.58,2.42 800.63,7.52 801.65,14.65"/>
    </edge>
    <edge id=":1/0_22" function="internal">
        <lane id=":1/0_22_0" index="0" speed="12.00" length="2.41" shape="787.00,-0.00 786.59,0.82 785.35,1.65"/>
    </edge>
    <edge id=":1/1_0" function="internal">
        <lane id=":1/1_0_0" index="0" speed="12.00" length="5.00" shape="788.45,814.65 788.26,813.29 787.68,812.33 786.71,811.74 785.35,811.55"/>
    </edge>
    <edge id=":1/1_1" function="internal">
        <lane id=":1/1_1_0" index="0" speed="12.00" length="29.30" shape="788.45,814.65 788.45,805.95 788.45,800.00 788.45,794.05 788.45,785.35"/>
        <lane id=":1/1_1_1" index="1" speed="12.00" length="29.30" shape="791.75,814.65 791.75,805.95 791.75,800.00 791.75,794.05 791.75,785.35"/>
        <lane id=":1/1_1_2" index="2" speed="12.00" length="29.30" shape="795.05,814.65 795.05,805.95 795.05,800.00 795.05,794.05 795.05,785.35"/>
        <lane id=":1/1_1_3" index="3" speed="12.00" length="29.30" shape="798.35,814.65 798.35,805.95 798.35,800.00 798.35,794.05 798.35,785.35"/>
    </edge>
    <edge id=":1/1_5" function="internal">
        <lane id=":1/1_5_0" index="0" speed="12.00" length="8.53" shape="798.35,814.65 799.37,807.52 800.05,806.38"/>
    </edge>
    <edge id=":1/1_6" function="internal">
        <lane id=":1/1_6_0" index="0" speed="12.00" length="2.41" shape="798.35,814.65 799.18,813.41 800.00,813.00"/>
    </edge>
    <edge id=":1/1_28" function="internal">
        <lane id=":1/1_28_0" index="0" speed="12.00" length="17.76" shape="800.05,806.38 802.43,802.42 807.52,799.37 814.65,798.35"/>
    </edge>
    <edge id=":1/1_29" function="internal">
        <lane id=":1/1_29_0" index="0" speed="12.00" length="2.41" shape="800.00,813.00 800.83,813.41 801.65,814.65"/>
    </edge>
    <edge id=":1/1_7" function="internal">
        <lane id=":1/1_7_0" index="0" speed="12.00" length="7.66" shape="814.65,811.55 813.29,811.74 812.33,812.32 811.74,813.29 811.55,814.65"/>
        <lane id=":1/1_7_1" index="1" speed="12.00" length="7.66" shape="814.65,808.25 811.85,808.65 809.85,809.85 808.65,811.85 808.25,814.65"/>
    </edge>
    <edge id=":1/1_9" function="internal">
        <lane id=":1/1_9_0" index="0" speed="12.00" length="29.42" shape="814.65,804.95 805.93,805.47 800.00,806.60 794.07,807.73 785.35,808.25"/>
        <lane id=":1/1_9_1" index="1" speed="12.00" length="29.42" shape="814.65,804.95 805.95,804.95 800.00,804.95 794.05,804.95 785.35,804.95"/>
    </edge>
    <edge id=":1/1_11" function="internal">
        <lane id=":1/1_11_0" index="0" speed="12.00" length="28.95" shape="814.65,804.95 806.07,803.73 799.95,800.05 796.27,793.93 795.05,785.35"/>
        <lane id=":1/1_11_1" index="1" speed="12.00" length="28.95" shape="814.65,801.65 807.52,800.63 802.43,797.57 799.37,792.48 798.35,785.35"/>
    </edge>
    <edge id=":1/1_13" function="internal">
        <lane id=":1/1_13_0" index="0" speed="12.00" length="4.82" shape="814.65,801.65 813.41,800.82 813.00,800.00 813.41,799.17 814.65,798.35"/>
    </edge>
    <edge id=":1/1_14" function="internal">
        <lane id=":1/1_14_0" index="0" speed="12.00" length="5.00" shape="811.55,785.35 811.74,786.71 812.32,787.67 813.29,788.26 814.65,788.45"/>
    </edge>
    <edge id=":1/1_15" function="internal">
        <lane id=":1/1_15_0" index="0" speed="12.00" length="29.30" shape="811.55,785.35 811.55,794.05 811.55,800.00 811.55,805.95 811.55,814.65"/>
        <lane id=":1/1_15_1" index="1" speed="12.00" length="29.30" shape="808.25,785.35 808.25,794.05 808.25,800.00 808.25,805.95 808.25,814.65"/>
        <lane id=":1/1_15_2" index="2" speed="12.00" length="29.30" shape="804.95,785.35 804.95,794.05 804.95,800.00 804.95,805.95 804.95,814.65"/>
        <lane id=":1/1_15_3" index="3" speed="12.00" length="29.30" shape="801.65,785.35 801.65,794.05 801.65,800.00 801.65,805.95 801.65,814.65"/>
    </edge>
    <edge id=":1/1_19" function="internal">
        <lane id=":1/1_19_0" index="0" speed="12.00" length="8.53" shape="801.65,785.35 800.63,792.48 799.95,793.62"/>
    </edge>
    <edge id=":1/1_20" function="internal">
        <lane id=":1/1_20_0" index="0" speed="12.00" length="2.41" shape="801.65,785.35 800.82,786.59 800.00,787.00"/>
    </edge>
    <edge id=":1/1_30" function="internal">
        <lane id=":1/1_30_0" index="0" speed="12.00" length="17.76" shape="799.95,793.62 797.57,797.57 792.48,800.63 785.35,801.65"/>
    </edge>
    <edge id=":1/1_31" function="internal">
        <lane id=":1/1_31_0" index="0" speed="12.00" length="2.41" shape="800.00,787.00 799.17,786.59 798.35,785.35"/>
    </edge>
    <edge id=":1/1_21" function="internal">
        <lane id=":1/1_21_0" index="0" speed="12.00" length="7.66" shape="785.35,788.45 786.71,788.26 787.67,787.68 788.26,786.71 788.45,785.35"/>
        <lane id=":1/1_21_1" index="1" speed="12.00" length="7.66" shape="785.35,791.75 788.15,791.35 790.15,790.15 791.35,788.15 791.75,785.35"/>
    </edge>
    <edge id=":1/1_23" function="internal">
        <lane id=":1/1_23_0" index="0" speed="12.00" length="29.42" shape="785.35,795.05 794.07,794.53 800.00,793.40 805.93,792.27 814.65,791.75"/>
        <lane id=":1/1_23_1" index="1" speed="12.00" length="29.42" shape="785.35,795.05 794.05,795.05 800.00,795.05 805.95,795.05 814.65,795.05"/>
    </edge>
    <edge id=":1/1_25" function="internal">
        <lane id=":1/1_25_0" index="0" speed="12.00" length="28.95" shape="785.35,795.05 793.93,796.27 800.05,799.95 803.73,806.07 804.95,814.65"/>
        <lane id=":1/1_25_1" index="1" speed="12.00" length="28.95" shape="785.35,798.35 792.48,799.37 797.57,802.43 800.63,807.52 801.65,814.65"/>
    </edge>
    <edge id=":1/1_27" function="internal">