<?xml version="1.0" encoding="UTF-8"?>

<!-- generated on 03/21/16 09:42:44 by SUMO netgenerate Version 0.24.0
<?xml version="1.0" encoding="UTF-8"?>

<configuration xmlns:xsi="http://www.w3.org/2001/XMLSchema-instance" xsi:noNamespaceSchemaLocation="http://sumo.dlr.de/xsd/netgenerateConfiguration.xsd">

    <grid_network>
        <grid value="true"/>
        <grid.x-number value="6"/>
        <grid.y-number value="6"/>
        <grid.x-length value="500"/>
        <grid.y-length value="500"/>
    </grid_network>

    <output>
        <output-file value="input_net.net.xml"/>
    </output>

    <building_defaults>
        <default.lanenumber value="4"/>
        <default.speed value="12"/>
    </building_defaults>

</configuration>
-->

<net version="0.13" xmlns:xsi="http://www.w3.org/2001/XMLSchema-instance" xsi:noNamespaceSchemaLocation="http://sumo.dlr.de/xsd/net_file.xsd">

    <location netOffset="0.00,0.00" convBoundary="0.00,0.00,2500.00,2500.00" origBoundary="0.00,0.00,2500.00,2500.00" projParameter="!"/>

    <edge id=":0/0_0" function="internal">
        <lane id=":0/0_0_0" index="0" speed="12.00" length="31.85" shape="-11.55,13.15 -10.01,2.34 -5.38,-5.38 2.34,-10.01 13.15,-11.55"/>
        <lane id=":0/0_0_1" index="1" speed="12.00" length="31.85" shape="-8.25,13.15 -6.91,3.79 -2.90,-2.90 3.79,-6.91 13.15,-8.25"/>
        <lane id=":0/0_0_2" index="2" speed="12.00" length="31.85" shape="-4.95,13.15 -3.82,5.23 -0.42,-0.42 5.23,-3.82 13.15,-4.95"/>
        <lane id=":0/0_0_3" index="3" speed="12.00" length="31.85" shape="-1.65,13.15 -0.73,6.68 2.05,2.05 6.68,-0.72 13.15,-1.65"/>
    </edge>
    <edge id=":0/0_4" function="internal">
        <lane id=":0/0_4_0" index="0" speed="12.00" length="2.69" shape="-1.65,13.15 -0.82,11.91 0.00,11.50 0.25,11.63"/>
    </edge>
    <edge id=":0/0_10" function="internal">
        <lane id=":0/0_10_0" index="0" speed="12.00" length="2.13" shape="0.25,11.63 0.83,11.91 1.65,13.15"/>
    </edge>
    <edge id=":0/0_5" function="internal">
        <lane id=":0/0_5_0" index="0" speed="12.00" length="10.56" shape="13.15,11.55 12.45,11.65 11.95,11.95 11.65,12.45 11.55,13.15"/>
        <lane id=":0/0_5_1" index="1" speed="12.00" length="10.56" shape="13.15,8.25 11.01,8.56 9.47,9.48 8.56,11.01 8.25,13.15"/>
        <lane id=":0/0_5_2" index="2" speed="12.00" length="10.56" shape="13.15,4.95 9.56,5.46 7.00,7.00 5.46,9.56 4.95,13.15"/>
        <lane id=":0/0_5_3" index="3" speed="12.00" length="10.56" shape="13.15,1.65 8.12,2.37 4.52,4.53 2.37,8.12 1.65,13.15"/>
    </edge>
    <edge id=":0/0_9" function="internal">
        <lane id=":0/0_9_0" index="0" speed="12.00" length="2.20" shape="13.15,1.65 11.91,0.82 11.59,0.19"/>
    </edge>
    <edge id=":0/0_11" function="internal">
        <lane id=":0/0_11_0" index="0" speed="12.00" length="2.62" shape="11.59,0.19 11.50,-0.00 11.91,-0.83 13.15,-1.65"/>
    </edge>
    <edge id=":0/1_0" function="internal">
        <lane id=":0/1_0_0" index="0" speed="12.00" length="29.30" shape="-11.55,514.65 -11.55,505.95 -11.55,500.00 -11.55,494.05 -11.55,485.35"/>
        <lane id=":0/1_0_1" index="1" speed="12.00" length="29.30" shape="-8.25,514.65 -8.25,505.95 -8.25,500.00 -8.25,494.05 -8.25,485.35"/>
        <lane id=":0/1_0_2" index="2" speed="12.00" length="29.30" shape="-4.95,514.65 -4.95,505.95 -4.95,500.00 -4.95,494.05 -4.95,485.35"/>
    </edge>
    <edge id=":0/1_3" function="internal">
        <lane id=":0/1_3_0" index="0" speed="12.00" length="9.34" shape="-1.65,514.65 -0.63,506.07 0.05,504.71"/>
        <lane id=":0/1_3_1" index="1" speed="12.00" length="9.34" shape="-1.65,514.65 -0.63,507.52 0.05,506.38"/>
    </edge>
    <edge id=":0/1_5" function="internal">
        <lane id=":0/1_5_0" index="0" speed="12.00" length="2.41" shape="-1.65,514.65 -0.83,513.41 -0.00,513.00"/>
    </edge>
    <edge id=":0/1_19" function="internal">
        <lane id=":0/1_19_0" index="0" speed="12.00" length="18.84" shape="0.05,504.71 2.43,499.95 7.52,496.27 14.65,495.05"/>
    </edge>
    <edge id=":0/1_20" function="internal">
        <lane id=":0/1_20_0" index="0" speed="12.00" length="17.76" shape="0.05,506.38 2.43,502.43 7.52,499.37 14.65,498.35"/>
    </edge>
    <edge id=":0/1_21" function="internal">
        <lane id=":0/1_21_0" index="0" speed="12.00" length="2.41" shape="-0.00,513.00 0.83,513.41 1.65,514.65"/>
    </edge>
    <edge id=":0/1_6" function="internal">
        <lane id=":0/1_6_0" index="0" speed="12.00" length="9.47" shape="14.65,511.55 13.29,511.74 12.33,512.33 11.74,513.29 11.55,514.65"/>
        <lane id=":0/1_6_1" index="1" speed="12.00" length="9.47" shape="14.65,508.25 11.85,508.65 9.85,509.85 8.65,511.85 8.25,514.65"/>
        <lane id=":0/1_6_2" index="2" speed="12.00" length="9.47" shape="14.65,508.25 10.41,508.65 7.37,509.85 5.56,511.85 4.95,514.65"/>
    </edge>
    <edge id=":0/1_9" function="internal">
        <lane id=":0/1_9_0" index="0" speed="12.00" length="28.95" shape="14.65,504.95 6.08,503.73 -0.05,500.05 -3.72,493.92 -4.95,485.35"/>
        <lane id=":0/1_9_1" index="1" speed="12.00" length="28.95" shape="14.65,501.65 7.52,500.63 2.43,497.57 -0.63,492.48 -1.65,485.35"/>
    </edge>
    <edge id=":0/1_11" function="internal">
        <lane id=":0/1_11_0" index="0" speed="12.00" length="4.82" shape="14.65,501.65 13.41,500.82 13.00,500.00 13.41,499.18 14.65,498.35"/>
    </edge>
    <edge id=":0/1_12" function="internal">
        <lane id=":0/1_12_0" index="0" speed="12.00" length="6.42" shape="11.55,485.35 11.74,486.71 12.33,487.67 13.29,488.26 14.65,488.45"/>
        <lane id=":0/1_12_1" index="1" speed="12.00" length="6.42" shape="11.55,485.35 11.74,488.15 12.33,490.15 13.29,491.35 14.65,491.75"/>
    </edge>
    <edge id=":0/1_14" function="internal">
        <lane id=":0/1_14_0" index="0" speed="12.00" length="29.30" shape="11.55,485.35 11.55,494.05 11.55,500.00 11.55,505.95 11.55,514.65"/>
        <lane id=":0/1_14_1" index="1" speed="12.00" length="29.30" shape="8.25,485.35 8.25,494.05 8.25,500.00 8.25,505.95 8.25,514.65"/>
        <lane id=":0/1_14_2" index="2" speed="12.00" length="29.30" shape="4.95,485.35 4.95,494.05 4.95,500.00 4.95,505.95 4.95,514.65"/>
        <lane id=":0/1_14_3" index="3" speed="12.00" length="29.30" shape="1.65,485.35 1.65,494.05 1.65,500.00 1.65,505.95 1.65,514.65"/>
    </edge>
    <edge id=":0/1_18" function="internal">
        <lane id=":0/1_18_0" index="0" speed="12.00" length="2.41" shape="1.65,485.35 0.83,486.59 0.00,487.00"/>
    </edge>
    <edge id=":0/1_22" function="internal">
        <lane id=":0/1_22_0" index="0" speed="12.00" length="2.41" shape="0.00,487.00 -0.83,486.59 -1.65,485.35"/>
    </edge>
    <edge id=":0/2_0" function="internal">
        <lane id=":0/2_0_0" index="0" speed="12.00" length="29.30" shape="-11.55,1014.65 -11.55,1005.95 -11.55,1000.00 -11.55,994.05 -11.55,985.35"/>
        <lane id=":0/2_0_1" index="1" speed="12.00" length="29.30" shape="-8.25,1014.65 -8.25,1005.95 -8.25,1000.00 -8.25,994.05 -8.25,985.35"/>
        <lane id=":0/2_0_2" index="2" speed="12.00" length="29.30" shape="-4.95,1014.65 -4.95,1005.95 -4.95,1000.00 -4.95,994.05 -4.95,985.35"/>
    </edge>
    <edge id=":0/2_3" function="internal">
        <lane id=":0/2_3_0" index="0" speed="12.00" length="9.34" shape="-1.65,1014.65 -0.63,1006.07 0.05,1004.71"/>
        <lane id=":0/2_3_1" index="1" speed="12.00" length="9.34" shape="-1.65,1014.65 -0.63,1007.52 0.05,1006.38"/>
    </edge>
    <edge id=":0/2_5" function="internal">
        <lane id=":0/2_5_0" index="0" speed="12.00" length="2.41" shape="-1.65,1014.65 -0.83,1013.41 -0.00,1013.00"/>
    </edge>
    <edge id=":0/2_19" function="internal">
        <lane id=":0/2_19_0" index="0" speed="12.00" length="18.84" shape="0.05,1004.71 2.43,999.95 7.52,996.27 14.65,995.05"/>
    </edge>
    <edge id=":0/2_20" function="internal">
        <lane id=":0/2_20_0" index="0" speed="12.00" length="17.76" shape="0.05,1006.38 2.43,1002.43 7.52,999.37 14.65,998.35"/>
    </edge>
    <edge id=":0/2_21" function="internal">
        <lane id=":0/2_21_0" index="0" speed="12.00" length="2.41" shape="-0.00,1013.00 0.83,1013.41 1.65,1014.65"/>
    </edge>
    <edge id=":0/2_6" function="internal">
        <lane id=":0/2_6_0" index="0" speed="12.00" length="9.47" shape="14.65,1011.55 13.29,1011.74 12.33,1012.32 11.74,1013.29 11.55,1014.65"/>
        <lane id=":0/2_6_1" index="1" speed="12.00" length="9.47" shape="14.65,1008.25 11.85,1008.65 9.85,1009.85 8.65,1011.85 8.25,1014.65"/>
        <lane id=":0/2_6_2" index="2" speed="12.00" length="9.47" shape="14.65,1008.25 10.41,1008.65 7.37,1009.85 5.56,1011.85 4.95,1014.65"/>
    </edge>
    <edge id=":0/2_9" function="internal">
        <lane id=":0/2_9_0" index="0" speed="12.00" length="28.95" shape="14.65,1004.95 6.07,1003.73 -0.05,1000.05 -3.73,993.92 -4.95,985.35"/>
        <lane id=":0/2_9_1" index="1" speed="12.00" length="28.95" shape="14.65,1001.65 7.52,1000.63 2.43,997.57 -0.63,992.48 -1.65,985.35"/>
    </edge>
    <edge id=":0/2_11" function="internal">
        <lane id=":0/2_11_0" index="0" speed="12.00" length="4.82" shape="14.65,1001.65 13.41,1000.83 13.00,1000.00 13.41,999.17 14.65,998.35"/>
    </edge>
    <edge id=":0/2_12" function="internal">
        <lane id=":0/2_12_0" index="0" speed="12.00" length="6.42" shape="11.55,985.35 11.74,986.71 12.33,987.67 13.29,988.26 14.65,988.45"/>
        <lane id=":0/2_12_1" index="1" speed="12.00" length="6.42" shape="11.55,985.35 11.74,988.15 12.33,990.15 13.29,991.35 14.65,991.75"/>
    </edge>
    <edge id=":0/2_14" function="internal">
        <lane id=":0/2_14_0" index="0" speed="12.00" length="29.30" shape="11.55,985.35 11.55,994.05 11.55,1000.00 11.55,1005.95 11.55,1014.65"/>
        <lane id=":0/2_14_1" index="1" speed="12.00" length="29.30" shape="8.25,985.35 8.25,994.05 8.25,1000.00 8.25,1005.95 8.25,1014.65"/>
        <lane id=":0/2_14_2" index="2" speed="12.00" length="29.30" shape="4.95,985.35 4.95,994.05 4.95,1000.00 4.95,1005.95 4.95,1014.65"/>
        <lane id=":0/2_14_3" index="3" speed="12.00" length="29.30" shape="1.65,985.35 1.65,994.05 1.65,1000.00 1.65,1005.95 1.65,1014.65"/>
    </edge>
    <edge id=":0/2_18" function="internal">
        <lane id=":0/2_18_0" index="0" speed="12.00" length="2.41" shape="1.65,985.35 0.83,986.59 0.00,987.00"/>
    </edge>
    <edge id=":0/2_22" function="internal">
        <lane id=":0/2_22_0" index="0" speed="12.00" length="2.41" shape="0.00,987.00 -0.83,986.59 -1.65,985.35"/>
    </edge>
    <edge id=":0/3_0" function="internal">
        <lane id=":0/3_0_0" index="0" speed="12.00" length="29.30" shape="-11.55,1514.65 -11.55,1505.95 -11.55,1500.00 -11.55,1494.05 -11.55,1485.35"/>
        <lane id=":0/3_0_1" index="1" speed="12.00" length="29.30" shape="-8.25,1514.65 -8.25,1505.95 -8.25,1500.00 -8.25,1494.05 -8.25,1485.35"/>
        <lane id=":0/3_0_2" index="2" speed="12.00" length="29.30" shape="-4.95,1514.65 -4.95,1505.95 -4.95,1500.00 -4.95,1494.05 -4.95,1485.35"/>
    </edge>
    <edge id=":0/3_3" function="internal">
        <lane id=":0/3_3_0" index="0" speed="12.00" length="9.34" shape="-1.65,1514.65 -0.63,1506.07 0.05,1504.71"/>
        <lane id=":0/3_3_1" index="1" speed="12.00" length="9.34" shape="-1.65,1514.65 -0.63,1507.52 0.05,1506.38"/>
    </edge>
    <edge id=":0/3_5" function="internal">
        <lane id=":0/3_5_0" index="0" speed="12.00" length="2.41" shape="-1.65,1514.65 -0.83,1513.41 -0.00,1513.00"/>
    </edge>
    <edge id=":0/3_19" function="internal">
        <lane id=":0/3_19_0" index="0" speed="12.00" length="18.84" shape="0.05,1504.71 2.43,1499.95 7.52,1496.27 14.65,1495.05"/>
    </edge>
    <edge id=":0/3_20" function="internal">
        <lane id=":0/3_20_0" index="0" speed="12.00" length="17.76" shape="0.05,1506.38 2.43,1502.42 7.52,1499.37 14.65,1498.35"/>
    </edge>
    <edge id=":0/3_21" function="internal">
        <lane id=":0/3_21_0" index="0" speed="12.00" length="2.41" shape="-0.00,1513.00 0.83,1513.41 1.65,1514.65"/>
    </edge>
    <edge id=":0/3_6" function="internal">
        <lane id=":0/3_6_0" index="0" speed="12.00" length="9.47" shape="14.65,1511.55 13.29,1511.74 12.33,1512.32 11.74,1513.29 11.55,1514.65"/>
        <lane id=":0/3_6_1" index="1" speed="12.00" length="9.47" shape="14.65,1508.25 11.85,1508.65 9.85,1509.85 8.65,1511.85 8.25,1514.65"/>
        <lane id=":0/3_6_2" index="2" speed="12.00" length="9.47" shape="14.65,1508.25 10.41,1508.65 7.37,1509.85 5.56,1511.85 4.95,1514.65"/>
    </edge>
    <edge id=":0/3_9" function="internal">
        <lane id=":0/3_9_0" index="0" speed="12.00" length="28.95" shape="14.65,1504.95 6.08,1503.72 -0.05,1500.05 -3.73,1493.93 -4.95,1485.35"/>
        <lane id=":0/3_9_1" index="1" speed="12.00" length="28.95" shape="14.65,1501.65 7.52,1500.63 2.43,1497.58 -0.63,1492.48 -1.65,1485.35"/>
    </edge>
    <edge id=":0/3_11" function="internal">
        <lane id=":0/3_11_0" index="0" speed="12.00" length="4.82" shape="14.65,1501.65 13.41,1500.82 13.00,1500.00 13.41,1499.18 14.65,1498.35"/>
    </edge>
    <edge id=":0/3_12" function="internal">
        <lane id=":0/3_12_0" index="0" speed="12.00" length="6.42" shape="11.55,1485.35 11.74,1486.71 12.33,1487.68 13.29,1488.26 14.65,1488.45"/>
        <lane id=":0/3_12_1" index="1" speed="12.00" length="6.42" shape="11.55,1485.35 11.74,1488.15 12.33,1490.15 13.29,1491.35 14.65,1491.75"/>
    </edge>
    <edge id=":0/3_14" function="internal">
        <lane id=":0/3_14_0" index="0" speed="12.00" length="29.30" shape="11.55,1485.35 11.55,1494.05 11.55,1500.00 11.55,1505.95 11.55,1514.65"/>
        <lane id=":0/3_14_1" index="1" speed="12.00" length="29.30" shape="8.25,1485.35 8.25,1494.05 8.25,1500.00 8.25,1505.95 8.25,1514.65"/>
        <lane id=":0/3_14_2" index="2" speed="12.00" length="29.30" shape="4.95,1485.35 4.95,1494.05 4.95,1500.00 4.95,1505.95 4.95,1514.65"/>
        <lane id=":0/3_14_3" index="3" speed="12.00" length="29.30" shape="1.65,1485.35 1.65,1494.05 1.65,1500.00 1.65,1505.95 1.65,1514.65"/>
    </edge>
    <edge id=":0/3_18" function="internal">
        <lane id=":0/3_18_0" index="0" speed="12.00" length="2.41" shape="1.65,1485.35 0.83,1486.59 0.00,1487.00"/>
    </edge>
    <edge id=":0/3_22" function="internal">
        <lane id=":0/3_22_0" index="0" speed="12.00" length="2.41" shape="0.00,1487.00 -0.83,1486.59 -1.65,1485.35"/>
    </edge>
    <edge id=":0/4_0" function="internal">
        <lane id=":0/4_0_0" index="0" speed="12.00" length="29.30" shape="-11.55,2014.65 -11.55,2005.95 -11.55,2000.00 -11.55,1994.05 -11.55,1985.35"/>
        <lane id=":0/4_0_1" index="1" speed="12.00" length="29.30" shape="-8.25,2014.65 -8.25,2005.95 -8.25,2000.00 -8.25,1994.05 -8.25,1985.35"/>
        <lane id=":0/4_0_2" index="2" speed="12.00" length="29.30" shape="-4.95,2014.65 -4.95,2005.95 -4.95,2000.00 -4.95,1994.05 -4.95,1985.35"/>
    </edge>
    <edge id=":0/4_3" function="internal">
        <lane id=":0/4_3_0" index="0" speed="12.00" length="9.34" shape="-1.65,2014.65 -0.63,2006.07 0.05,2004.71"/>
        <lane id=":0/4_3_1" index="1" speed="12.00" length="9.34" shape="-1.65,2014.65 -0.63,2007.52 0.05,2006.38"/>
    </edge>
    <edge id=":0/4_5" function="internal">
        <lane id=":0/4_5_0" index="0" speed="12.00" length="2.41" shape="-1.65,2014.65 -0.83,2013.41 -0.00,2013.00"/>
    </edge>
    <edge id=":0/4_19" function="internal">
        <lane id=":0/4_19_0" index="0" speed="12.00" length="18.84" shape="0.05,2004.71 2.43,1999.95 7.52,1996.28 14.65,1995.05"/>
    </edge>
    <edge id=":0/4_20" function="internal">
        <lane id=":0/4_20_0" index="0" speed="12.00" length="17.76" shape="0.05,2006.38 2.43,2002.42 7.52,1999.37 14.65,1998.35"/>
    </edge>
    <edge id=":0/4_21" function="internal">
        <lane id=":0/4_21_0" index="0" speed="12.00" length="2.41" shape="-0.00,2013.00 0.83,2013.41 1.65,2014.65"/>
    </edge>
    <edge id=":0/4_6" function="internal">
        <lane id=":0/4_6_0" index="0" speed="12.00" length="9.47" shape="14.65,2011.55 13.29,2011.74 12.33,2012.32 11.74,2013.29 11.55,2014.65"/>
        <lane id=":0/4_6_1" index="1" speed="12.00" length="9.47" shape="14.65,2008.25 11.85,2008.65 9.85,2009.85 8.65,2011.85 8.25,2014.65"/>
        <lane id=":0/4_6_2" index="2" speed="12.00" length="9.47" shape="14.65,2008.25 10.41,2008.65 7.38,2009.85 5.56,2011.85 4.95,2014.65"/>
    </edge>
    <edge id=":0/4_9" function="internal">
        <lane id=":0/4_9_0" index="0" speed="12.00" length="28.95" shape="14.65,2004.95 6.08,2003.72 -0.05,2000.05 -3.72,1993.93 -4.95,1985.35"/>
        <lane id=":0/4_9_1" index="1" speed="12.00" length="28.95" shape="14.65,2001.65 7.52,2000.63 2.43,1997.58 -0.63,1992.48 -1.65,1985.35"/>
    </edge>
    <edge id=":0/4_11" function="internal">
        <lane id=":0/4_11_0" index="0" speed="12.00" length="4.82" shape="14.65,2001.65 13.41,2000.83 13.00,2000.00 13.41,1999.17 14.65,1998.35"/>
    </edge>
    <edge id=":0/4_12" function="internal">
        <lane id=":0/4_12_0" index="0" speed="12.00" length="6.42" shape="11.55,1985.35 11.74,1986.71 12.33,1987.68 13.29,1988.26 14.65,1988.45"/>
        <lane id=":0/4_12_1" index="1" speed="12.00" length="6.42" shape="11.55,1985.35 11.74,1988.15 12.33,1990.15 13.29,1991.35 14.65,1991.75"/>
    </edge>
    <edge id=":0/4_14" function="internal">
        <lane id=":0/4_14_0" index="0" speed="12.00" length="29.30" shape="11.55,1985.35 11.55,1994.05 11.55,2000.00 11.55,2005.95 11.55,2014.65"/>
        <lane id=":0/4_14_1" index="1" speed="12.00" length="29.30" shape="8.25,1985.35 8.25,1994.05 8.25,2000.00 8.25,2005.95 8.25,2014.65"/>
        <lane id=":0/4_14_2" index="2" speed="12.00" length="29.30" shape="4.95,1985.35 4.95,1994.05 4.95,2000.00 4.95,2005.95 4.95,2014.65"/>
        <lane id=":0/4_14_3" index="3" speed="12.00" length="29.30" shape="1.65,1985.35 1.65,1994.05 1.65,2000.00 1.65,2005.95 1.65,2014.65"/>
    </edge>
    <edge id=":0/4_18" function="internal">
        <lane id=":0/4_18_0" index="0" speed="12.00" length="2.41" shape="1.65,1985.35 0.83,1986.59 0.00,1987.00"/>
    </edge>
    <edge id=":0/4_22" function="internal">
        <lane id=":0/4_22_0" index="0" speed="12.00" length="2.41" shape="0.00,1987.00 -0.83,1986.59 -1.65,1985.35"/>
    </edge>
    <edge id=":0/5_0" function="internal">
        <lane id=":0/5_0_0" index="0" speed="12.00" length="31.85" shape="13.15,2511.55 2.34,2510.01 -5.37,2505.38 -10.01,2497.66 -11.55,2486.85"/>
        <lane id=":0/5_0_1" index="1" speed="12.00" length="31.85" shape="13.15,2508.25 3.79,2506.91 -2.90,2502.90 -6.91,2496.21 -8.25,2486.85"/>
        <lane id=":0/5_0_2" index="2" speed="12.00" length="31.85" shape="13.15,2504.95 5.23,2503.82 -0.42,2500.42 -3.82,2494.77 -4.95,2486.85"/>
        <lane id=":0/5_0_3" index="3" speed="12.00" length="31.85" shape="13.15,2501.65 6.68,2500.72 2.05,2497.95 -0.72,2493.32 -1.65,2486.85"/>
    </edge>
    <edge id=":0/5_4" function="internal">
        <lane id=":0/5_4_0" index="0" speed="12.00" length="2.69" shape="13.15,2501.65 11.91,2500.83 11.50,2500.00 11.63,2499.75"/>
    </edge>
    <edge id=":0/5_10" function="internal">
        <lane id=":0/5_10_0" index="0" speed="12.00" length="2.13" shape="11.63,2499.75 11.91,2499.18 13.15,2498.35"/>
    </edge>
    <edge id=":0/5_5" function="internal">
        <lane id=":0/5_5_0" index="0" speed="12.00" length="10.56" shape="11.55,2486.85 11.65,2487.55 11.95,2488.05 12.45,2488.35 13.15,2488.45"/>
        <lane id=":0/5_5_1" index="1" speed="12.00" length="10.56" shape="8.25,2486.85 8.56,2488.99 9.48,2490.53 11.01,2491.44 13.15,2491.75"/>
        <lane id=":0/5_5_2" index="2" speed="12.00" length="10.56" shape="4.95,2486.85 5.46,2490.44 7.00,2493.00 9.56,2494.54 13.15,2495.05"/>
        <lane id=":0/5_5_3" index="3" speed="12.00" length="10.56" shape="1.65,2486.85 2.37,2491.88 4.53,2495.47 8.12,2497.63 13.15,2498.35"/>
    </edge>
    <edge id=":0/5_9" function="internal">
        <lane id=":0/5_9_0" index="0" speed="12.00" length="2.20" shape="1.65,2486.85 0.83,2488.09 0.19,2488.41"/>
    </edge>
    <edge id=":0/5_11" function="internal">
        <lane id=":0/5_11_0" index="0" speed="12.00" length="2.62" shape="0.19,2488.41 0.00,2488.50 -0.83,2488.09 -1.65,2486.85"/>
    </edge>
    <edge id=":1/0_0" function="internal">
        <lane id=":1/0_0_0" index="0" speed="12.00" length="9.47" shape="488.45,14.65 488.26,13.29 487.67,12.33 486.71,11.74 485.35,11.55"/>
        <lane id=":1/0_0_1" index="1" speed="12.00" length="9.47" shape="491.75,14.65 491.35,11.85 490.15,9.85 488.15,8.65 485.35,8.25"/>
        <lane id=":1/0_0_2" index="2" speed="12.00" length="9.47" shape="491.75,14.65 491.35,10.41 490.15,7.38 488.15,5.56 485.35,4.95"/>
    </edge>
    <edge id=":1/0_3" function="internal">
        <lane id=":1/0_3_0" index="0" speed="12.00" length="28.95" shape="495.05,14.65 496.27,6.08 499.95,-0.05 506.07,-3.72 514.65,-4.95"/>
        <lane id=":1/0_3_1" index="1" speed="12.00" length="28.95" shape="498.35,14.65 499.37,7.52 502.43,2.43 507.52,-0.63 514.65,-1.65"/>
    </edge>
    <edge id=":1/0_5" function="internal">
        <lane id=":1/0_5_0" index="0" speed="12.00" length="4.82" shape="498.35,14.65 499.18,13.41 500.00,13.00 500.82,13.41 501.65,14.65"/>
    </edge>
    <edge id=":1/0_6" function="internal">
        <lane id=":1/0_6_0" index="0" speed="12.00" length="6.42" shape="514.65,11.55 513.29,11.74 512.33,12.33 511.74,13.29 511.55,14.65"/>
        <lane id=":1/0_6_1" index="1" speed="12.00" length="6.42" shape="514.65,11.55 511.85,11.74 509.85,12.33 508.65,13.29 508.25,14.65"/>
    </edge>
    <edge id=":1/0_8" function="internal">
        <lane id=":1/0_8_0" index="0" speed="12.00" length="29.30" shape="514.65,11.55 505.95,11.55 500.00,11.55 494.05,11.55 485.35,11.55"/>
        <lane id=":1/0_8_1" index="1" speed="12.00" length="29.30" shape="514.65,8.25 505.95,8.25 500.00,8.25 494.05,8.25 485.35,8.25"/>
        <lane id=":1/0_8_2" index="2" speed="12.00" length="29.30" shape="514.65,4.95 505.95,4.95 500.00,4.95 494.05,4.95 485.35,4.95"/>
        <lane id=":1/0_8_3" index="3" speed="12.00" length="29.30" shape="514.65,1.65 505.95,1.65 500.00,1.65 494.05,1.65 485.35,1.65"/>
    </edge>
    <edge id=":1/0_12" function="internal">
        <lane id=":1/0_12_0" index="0" speed="12.00" length="2.41" shape="514.65,1.65 513.41,0.83 513.00,0.00"/>
    </edge>
    <edge id=":1/0_19" function="internal">
        <lane id=":1/0_19_0" index="0" speed="12.00" length="2.41" shape="513.00,0.00 513.41,-0.83 514.65,-1.65"/>
    </edge>
    <edge id=":1/0_13" function="internal">
        <lane id=":1/0_13_0" index="0" speed="12.00" length="29.30" shape="485.35,-11.55 494.05,-11.55 500.00,-11.55 505.95,-11.55 514.65,-11.55"/>
        <lane id=":1/0_13_1" index="1" speed="12.00" length="29.30" shape="485.35,-8.25 494.05,-8.25 500.00,-8.25 505.95,-8.25 514.65,-8.25"/>
        <lane id=":1/0_13_2" index="2" speed="12.00" length="29.30" shape="485.35,-4.95 494.05,-4.95 500.00,-4.95 505.95,-4.95 514.65,-4.95"/>
    </edge>
    <edge id=":1/0_16" function="internal">
        <lane id=":1/0_16_0" index="0" speed="12.00" length="9.34" shape="485.35,-1.65 493.92,-0.63 495.29,0.05"/>
        <lane id=":1/0_16_1" index="1" speed="12.00" length="9.34" shape="485.35,-1.65 492.48,-0.63 493.62,0.05"/>
    </edge>
    <edge id=":1/0_18" function="internal">
        <lane id=":1/0_18_0" index="0" speed="12.00" length="2.41" shape="485.35,-1.65 486.59,-0.83 487.00,-0.00"/>
    </edge>
    <edge id=":1/0_20" function="internal">
        <lane id=":1/0_20_0" index="0" speed="12.00" length="18.84" shape="495.29,0.05 500.05,2.43 503.73,7.52 504.95,14.65"/>
    </edge>
    <edge id=":1/0_21" function="internal">
        <lane id=":1/0_21_0" index="0" speed="12.00" length="17.76" shape="493.62,0.05 497.57,2.43 500.63,7.52 501.65,14.65"/>
    </edge>
    <edge id=":1/0_22" function="internal">
        <lane id=":1/0_22_0" index="0" speed="12.00" length="2.41" shape="487.00,-0.00 486.59,0.83 485.35,1.65"/>
    </edge>
    <edge id=":1/1_0" function="internal">
        <lane id=":1/1_0_0" index="0" speed="12.00" length="5.00" shape="488.45,514.65 488.26,513.29 487.67,512.33 486.71,511.74 485.35,511.55"/>
    </edge>
    <edge id=":1/1_1" function="internal">
        <lane id=":1/1_1_0" index="0" speed="12.00" length="29.30" shape="488.45,514.65 488.45,505.95 488.45,500.00 488.45,494.05 488.45,485.35"/>
        <lane id=":1/1_1_1" index="1" speed="12.00" length="29.30" shape="491.75,514.65 491.75,505.95 491.75,500.00 491.75,494.05 491.75,485.35"/>
        <lane id=":1/1_1_2" index="2" speed="12.00" length="29.30" shape="495.05,514.65 495.05,505.95 495.05,500.00 495.05,494.05 495.05,485.35"/>
        <lane id=":1/1_1_3" index="3" speed="12.00" length="29.30" shape="498.35,514.65 498.35,505.95 498.35,500.00 498.35,494.05 498.35,485.35"/>
    </edge>
    <edge id=":1/1_5" function="internal">
        <lane id=":1/1_5_0" index="0" speed="12.00" length="8.53" shape="498.35,514.65 499.37,507.52 500.05,506.38"/>
    </edge>
    <edge id=":1/1_6" function="internal">
        <lane id=":1/1_6_0" index="0" speed="12.00" length="2.41" shape="498.35,514.65 499.18,513.41 500.00,513.00"/>
    </edge>
    <edge id=":1/1_28" function="internal">
        <lane id=":1/1_28_0" index="0" speed="12.00" length="17.76" shape="500.05,506.38 502.43,502.42 507.52,499.37 514.65,498.35"/>
    </edge>
    <edge id=":1/1_29" function="internal">
        <lane id=":1/1_29_0" index="0" speed="12.00" length="2.41" shape="500.00,513.00 500.82,513.41 501.65,514.65"/>
    </edge>
    <edge id=":1/1_7" function="internal">
        <lane id=":1/1_7_0" index="0" speed="12.00" length="7.66" shape="514.65,511.55 513.29,511.74 512.33,512.33 511.74,513.29 511.55,514.65"/>
        <lane id=":1/1_7_1" index="1" speed="12.00" length="7.66" shape="514.65,508.25 511.85,508.65 509.85,509.85 508.65,511.85 508.25,514.65"/>
    </edge>
    <edge id=":1/1_9" function="internal">
        <lane id=":1/1_9_0" index="0" speed="12.00" length="29.42" shape="514.65,504.95 505.93,505.47 500.00,506.60 494.07,507.73 485.35,508.25"/>
        <lane id=":1/1_9_1" index="1" speed="12.00" length="29.42" shape="514.65,504.95 505.95,504.95 500.00,504.95 494.05,504.95 485.35,504.95"/>
    </edge>
    <edge id=":1/1_11" function="internal">
        <lane id=":1/1_11_0" index="0" speed="12.00" length="28.95" shape="514.65,504.95 506.07,503.73 499.95,500.05 496.27,493.92 495.05,485.35"/>
        <lane id=":1/1_11_1" index="1" speed="12.00" length="28.95" shape="514.65,501.65 507.52,500.63 502.43,497.57 499.37,492.48 498.35,485.35"/>
    </edge>
    <edge id=":1/1_13" function="internal">
        <lane id=":1/1_13_0" index="0" speed="12.00" length="4.82" shape="514.65,501.65 513.41,500.82 513.00,500.00 513.41,499.18 514.65,498.35"/>
    </edge>
    <edge id=":1/1_14" function="internal">
        <lane id=":1/1_14_0" index="0" speed="12.00" length="5.00" shape="511.55,485.35 511.74,486.71 512.33,487.67 513.29,488.26 514.65,488.45"/>
    </edge>
    <edge id=":1/1_15" function="internal">
        <lane id=":1/1_15_0" index="0" speed="12.00" length="29.30" shape="511.55,485.35 511.55,494.05 511.55,500.00 511.55,505.95 511.55,514.65"/>
        <lane id=":1/1_15_1" index="1" speed="12.00" length="29.30" shape="508.25,485.35 508.25,494.05 508.25,500.00 508.25,505.95 508.25,514.65"/>
        <lane id=":1/1_15_2" index="2" speed="12.00" length="29.30" shape="504.95,485.35 504.95,494.05 504.95,500.00 504.95,505.95 504.95,514.65"/>
        <lane id=":1/1_15_3" index="3" speed="12.00" length="29.30" shape="501.65,485.35 501.65,494.05 501.65,500.00 501.65,505.95 501.65,514.65"/>
    </edge>
    <edge id=":1/1_19" function="internal">
        <lane id=":1/1_19_0" index="0" speed="12.00" length="8.53" shape="501.65,485.35 500.63,492.48 499.95,493.62"/>
    </edge>
    <edge id=":1/1_20" function="internal">
        <lane id=":1/1_20_0" index="0" speed="12.00" length="2.41" shape="501.65,485.35 500.82,486.59 500.00,487.00"/>
    </edge>
    <edge id=":1/1_30" function="internal">
        <lane id=":1/1_30_0" index="0" speed="12.00" length="17.76" shape="499.95,493.62 497.57,497.57 492.48,500.63 485.35,501.65"/>
    </edge>
    <edge id=":1/1_31" function="internal">
        <lane id=":1/1_31_0" index="0" speed="12.00" length="2.41" shape="500.00,487.00 499.18,486.59 498.35,485.35"/>
    </edge>
    <edge id=":1/1_21" function="internal">
        <lane id=":1/1_21_0" index="0" speed="12.00" length="7.66" shape="485.35,488.45 486.71,488.26 487.68,487.67 488.26,486.71 488.45,485.35"/>
        <lane id=":1/1_21_1" index="1" speed="12.00" length="7.66" shape="485.35,491.75 488.15,491.35 490.15,490.15 491.35,488.15 491.75,485.35"/>
    </edge>
    <edge id=":1/1_23" function="internal">
        <lane id=":1/1_23_0" index="0" speed="12.00" length="29.42" shape="485.35,495.05 494.07,494.53 500.00,493.40 505.93,492.27 514.65,491.75"/>
        <lane id=":1/1_23_1" index="1" speed="12.00" length="29.42" shape="485.35,495.05 494.05,495.05 500.00,495.05 505.95,495.05 514.65,495.05"/>
    </edge>
    <edge id=":1/1_25" function="internal">
        <lane id=":1/1_25_0" index="0" speed="12.00" length="28.95" shape="485.35,495.05 493.92,496.27 500.05,499.95 503.73,506.07 504.95,514.65"/>
        <lane id=":1/1_25_1" index="1" speed="12.00" length="28.95" shape="485.35,498.35 492.48,499.37 497.57,502.43 500.63,507.52 501.65,514.65"/>
    </edge>
    <edge id=":1/1_27" function="internal">
        <lane id=":1/1_27_0" index="0" speed="12.00" length="4.82" shape="485.35,498.35 486.59,499.18 487.00,500.00 486.59,500.82 485.35,501.65"/>
    </edge>
    <edge id=":1/2_0" function="internal">
        <lane id=":1/2_0_0" index="0" speed="12.00" length="5.00" shape="488.45,1014.65 488.26,1013.29 487.67,1012.33 486.71,1011.74 485.35,1011.55"/>
    </edge>
    <edge id=":1/2_1" function="internal">