<?xml version="1.0" encoding="UTF-8"?>

<!-- generated on 02/22/17 18:32:58 by SUMO duarouter Version 0.24.0
<?xml version="1.0" encoding="UTF-8"?>

<configuration xmlns:xsi="http://www.w3.org/2001/XMLSchema-instance" xsi:noNamespaceSchemaLocation="http://sumo.dlr.de/xsd/duarouterConfiguration.xsd">

    <input>
        <net-file value="input_net.net.xml"/>
        <trip-files value="trips.trips.xml"/>
    </input>

    <output>
        <output-file value="routes.rou.xml"/>
    </output>

</configuration>
-->

<routes xmlns:xsi="http://www.w3.org/2001/XMLSchema-instance" xsi:noNamespaceSchemaLocation="http://sumo.dlr.de/xsd/routes_file.xsd">
    <vehicle id="0" depart="0.00">
        <route edges="-397406297#0 -397406275 397406266#0 397406266#1 397406266#2 397406266#3 397406266#4 -397406258#5 397406261#0 397406261#1 397406262#0 397406262#1 -91990979#1 -91990979#0 42310047 455431570 443619949 -210970615#1 -210970615#0 -58801402 -247113642#1 -247113642#0 247113631 443621379 58801396#0 58801396#1 472263801#0 255362788 255362783#0 255363615#0 -255363616#1 -255363616#0 255363617 255363610#0 -255363610#0"/>
    </vehicle>
    <vehicle id="1" depart="0.05">
        <route edges="-397406294#0 397406294#0 397406294#1 397406258#3 397406265 397406262#0 397406262#1 -91990979#1 -91990979#0 42310047 455431570 443619949 -210970615#1 -210970615#0 -58801402 -247113642#1 -247113642#0 247113631 443621379 443621380 455431572#0 455431572#1 -455431572#1"/>
    </vehicle>
    <vehicle id="2" depart="0.10">
        <route edges="306265837#3 306265837#4 306265837#5 464541885 448000712 448000714 464541880#0 464541880#1 464541880#2 464541880#3 472631498#0 472631498#1 472631498#2 472631498#3 472631498#4 472631498#5 472631498#6 462952190 462344515#0 462344515#1 462344515#2 462344515#3 459577894#0 459577894#1 462817591 246904200 246904204 472629522 472629523#0 472629523#1 448000715#0 58801387#2 447990270#0 447990270#1 447990270#2"/>
    </vehicle>
    <vehicle id="3" depart="0.15">
        <route edges="-255362783#0 255362783#0 255363615#0 255363615#1 472263801#2 472263801#3 472263801#4 472263801#5 472263801#6 462334365 461700087#2 461700087#3 462340107 462340113 469432289#0 469432289#1 469432289#2 469432289#3 462813771 472629517#0 472629517#1 472623519 469432290#0 469432290#1 472629526#0 472629526#1 472629526#2 103914572#0 103914572#1 -247113635#1 -247113634#1"/>
    </vehicle>
    <vehicle id="4" depart="0.20">
        <route edges="464541887#1 464541887#2 469432284#1 469432284#2 469432284#3 464133648#3 464133648#4 464133648#5 464133648#6 462742374#2"/>
    </vehicle>
    <vehicle id="5" depart="0.25">
        <route edges="462340099#6 468339029 472629524 472629526#0 472629526#1 472629526#2 462813774#0 462813774#1 462813774#2 462817590#0 462817590#1 459584179 472623524#0 472623524#1 472623524#2 472623524#3 459584180 459577891 469429393#0 469429393#1 472629534"/>
    </vehicle>
    <vehicle id="6" depart="0.30">
        <route edges="-306537046#1 306537046#1 306537046#2 103914258#0 443621386#2 443621387#0 443621387#1 443621389#0 156742399#0 156742399#1 156742399#2 103914577#0 103914577#1 103914577#2 103914577#3 443621379 58801396#0 472263800#1 443759884 247113642#0 247113642#1 58801402 263336452#0 118424573 118424571 468753284 467772312#0 467941517 -211118658#2 -211118657#0 -211118654#3 -211118656#0"/>
    </vehicle>
    <vehicle id="7" depart="0.35">
        <route edges="397406266#0 397406266#1 397406266#2 397406266#3 397406266#4 -397406258#5 397406261#0 397406261#1 397406262#0 397406262#1 -91990979#1 -91990979#0 42310047 455431570 443619949 -210970615#1 -210970615#0 -58801402 -247113642#1 -247113642#0 247113631 443621379 443621380 455431571 443621381 462951163 462340088 462340096#0 462340096#1 469429376 462949521#0 462949521#1 462949521#2 58801387#0 58801387#1 58801387#2 447990271#0 447990271#1 447990271#2 247113639 472629521#0 -306482834 306482834"/>
    </vehicle>
    <vehicle id="8" depart="0.40">
        <route edges="-211118657#1 211118657#1 211118657#2 468753281 -118424571 -118424573 -263336452#0 -58801402 -247113642#1 -247113642#0 247113631 443621379 58801396#0 58801396#1 472263801#0 255362788 -255362787#1 -255362787#0 -306628760#1 -255362783#17 -255362791#1 255362792 -255362790#1"/>
    </vehicle>
    <vehicle id="9" depart="0.45">
        <route edges="462817589#1 246904203 443621382#0 443621382#1 462802718 472264205#0 472264205#1 462742377#0 462742377#1 462742377#2 462742377#3 462742378 462744226#0 462744226#1 306537042#0"/>
    </vehicle>
    <vehicle id="10" depart="0.50">
        <route edges="255388795#1 255388795#2 255388795#3 255388795#4 462744226#4 462744226#5 462744226#6 443621383 462334371#0 462334371#1 462334371#2 447990271#0 472263796#2 448000716 103914261#0 472629518#6 58801387#0 306628761#0 -306628761#0"/>
    </vehicle>
    <vehicle id="11" depart="0.55">
        <route edges="255361856 306628766 255361859#3 255361859#4 215181897#6 103914248#0 103914248#1 462813771 472629517#0 472629517#1 472623519 469432290#0 469432290#1 472629526#0 472629526#1 472629526#2 462813774#0 462813774#1 462813774#2 462817590#0 462817590#1 459584179 472623524#0 -255391218#2 255391219#0 255391219#1 255391219#2 255393054#1"/>
    </vehicle>
    <vehicle id="12" depart="0.60">
        <route edges="467772310 -467772310 118337854 468753280#0 467941515#0"/>
    </vehicle>
    <vehicle id="13" depart="0.65">
        <route edges="462742374#0 -462340110#1 -462340110#0 462340112#0 462340111#1 472629516#1 256117508 472355268#0 472355268#1 472355268#2 469432289#0 469432289#1 469432289#2 469432289#3 462813771 472629517#0 472629517#1 472623519 469432290#0 469432290#1 472629526#0 472629526#1 306482836#0 306482836#1 -306482837#2 -255391216#2 -255391217#0 255391217#0"/>
    </vehicle>
    <vehicle id="14" depart="0.70">
        <route edges="58801373#4 58801373#5 58801373#6 469432283#2 469429391#0 469429391#1 443560636 443621380 455431572#0 255366919 -263632296 263632295#1 -255366916#2 -255366920"/>
    </vehicle>
    <vehicle id="15" depart="0.75">
        <route edges="469207032 -469207032 -469207033#2 -469207033#1 -469207033#0 -469207020 -469207022 464541883#2 464541883#3 469206991 469206988#0 469206988#1 469206988#2 469206988#3 469206988#4 447987019 300655406 306265837#0 306265837#1 306265837#2 306265837#3 306265837#4 306265837#5 447987027 464541886#0 464541886#1 464541888#0 464541888#1 464133648#0 464133648#1 464133648#2 464133648#3 -256117490#1 256117490#1"/>
    </vehicle>
    <vehicle id="16" depart="0.80">
        <route edges="469206988#2 469206988#3 469206988#4 447987019 300655406 306265837#0 306265837#1 306265837#2 306265837#3 306265837#4 306265837#5 447987027 464541886#0 464541886#1 464541887#0 464541887#1 464541887#2 464541887#3 469432285#0 469432285#1 469432285#2 469432285#3 469432285#4 469432285#5 462334370 462765082 462344514 215181897#0 215181897#1 -255352035#1 255352036#0 255352036#1 255363620#0 -255363625 -255363606#0 -255362774#2 -255362783#3 -255363610#2 -255363610#1 -255363610#0 -255363617"/>
    </vehicle>
    <vehicle id="17" depart="0.85">
        <route edges="255385470#1 -255385470#1 -255385470#0 -455431572#1 -455431572#0 455431571 443621381 462951163 462340088 462340096#0 462340096#1 469429376 462949521#0 462949521#1 462949521#2 58801387#0 58801387#1 58801387#2 447990271#0 447990271#1 447990271#2 472629519 246904209 58801375#0 58801375#1 459584178 462819764#0 462819764#1 472629527 472623522 472624447#0 472624447#1 332694979#2 332694980 460893411#3 -307102517 255393065#14 -255393065#14"/>
    </vehicle>
    <vehicle id="18" depart="0.90">
        <route edges="255362790#3 255362783#16 255362783#17 306628760#1 255362787#0 255362787#1 255362783#0 255363615#0 255363615#1 472263801#2 472263801#3 472263801#4 472263801#5 472263801#6 462334365 461700087#2 461700087#3 462340106#0 462340106#1 462340106#2 472354321 313039005 469429382#0 469429382#1 469429382#2 462742375#0 462742375#1 462742375#2 462742375#3 462742375#4 462742375#5 469429383#0 469429383#1 469429383#2 469429383#3 469429383#4 464541879 448000714"/>
    </vehicle>
    <vehicle id="19" depart="0.95">
        <route edges="397406281 397406266#4 -397406258#5 397406261#0 397406261#1 397406269#0 397406269#1 397406269#2"/>
    </vehicle>
    <vehicle id="20" depart="1.00">
        <route edges="-247113642#0 247113631 443621379 58801396#0 58801396#1 472263801#0 472263801#1 472263801#2 472263801#3 472263801#4 472263801#5 472263801#6 462334365 461700087#2 461700087#3 462340106#0 462340106#1 462340106#2 472354316 472354323 472629516#0 472629516#1 256117508 472355267 464122996#0 464122996#1 464122996#2 464122996#3 464122996#4 464122996#5 464122996#6 464541878 472355266#0 472355266#1 471727261#0 471727261#1 471727261#2 471727261#3 471727261#4 471727261#5 472629530#0 472629530#1 -255393081#3 -255393081#2 -255393067#1 -255393067#0"/>
    </vehicle>
    <vehicle id="21" depart="1.05">
        <route edges="443759867#2 443759867#3 443759867#4 103914263#0 103914263#1 103914263#2 443606203#0 443606203#1 443606203#2 443759879#0 443612011 462334371#2 447990271#0 447990271#1 447990271#2 472629519 246904209 58801375#0 -255393053#1 -255391217#1 -255391217#0 -255391214"/>
    </vehicle>
    <vehicle id="22" depart="1.10">
        <route edges="469206991 469206988#0 469206988#1 469206988#2 469206988#3 469206988#4 447987019 300655406 306265837#0 306265837#1 306265837#2 306265837#3 306265837#4 306265837#5 447987027 464541886#0 464541886#1 464541887#0 464541887#1 464541887#2 464541887#3 469432285#0 469432285#1 469432285#2 469432285#3 58801373#4 -256117501#1 462742373#1"/>
    </vehicle>
    <vehicle id="23" depart="1.15">
        <route edges="462744226#3 462744226#4 -103914254#9 462340105#2 462340105#3 462340105#4 462340105#5 462340105#6 462340105#7 462340105#8 462340105#9 462742376#0 462742376#1 462742376#2 462742376#3 462340101#1 462802716#0 462802716#1 462802716#2 462802716#3 103914577#0 103914577#1 103914577#2 103914577#3 443621379 58801396#0 472263800#1 443759884 247113642#0 247113642#1 58801402 210970615#0 210970615#1 443541721#0 443541721#1 443541721#2 91990979#0 91990979#1 -397406262#1 -397406262#0 -397406261#1 -397406261#0 397406258#5 -397406266#4 -397406281 397406267#1 397406267#2 397406282#0"/>
    </vehicle>
    <vehicle id="24" depart="1.20">
        <route edges="472263797#0 443612010 443621384#1 443612009 443606203#2 443759879#0 443612011 462334371#2 447990271#0 447990271#1 447990271#2 472629519 246904209 58801375#0 58801375#1 459584178 462819764#0 462819764#1 472629528 462344516#0 462344516#1 462344516#2 472629529#0 472629529#1 472629529#2 447990272 448000710#0 448000710#1 464541882#1 464541882#2 469429396#0 469429396#1 469429396#2 469429396#3 447987020 447987018 -469206988#4 -469206988#3 -469206988#2 -469206988#1 -469206988#0 -469206991 -464541883#3 -464541883#2 -464541883#1 -464541883#0 463737375"/>
    </vehicle>
    <vehicle id="25" depart="1.25">
        <route edges="-306848035#2 -306848035#1 256117483#0 256117483#1 464133648#5 464133648#6 464133648#7 464541890 462340112#0 462340112#1 464541876#0 464541876#1 469429381 462344514 215181897#0 215181897#1 -255352035#1 255352036#0 255352036#1 255363620#0 -255363625 -255363606#0 -255362774#2 -255362783#3 -255362783#2 -255362783#1 255362783#1"/>
    </vehicle>
    <vehicle id="26" depart="1.30">
        <route edges="307100069#3 255393067#1 -255393081#1 -255393081#0 472629533#1 472629533#2 472629533#3 472629533#4 469429392#0 469429392#1 469429392#2 459584181#0 459584181#1 458883147 459577888#0 459577888#1 459577888#2 472623517 459577889 472263795#0 472263795#1 472263795#2 472263795#3 472263795#4 443621386#0 443621386#1 443621386#2 246895405#0 246895405#1 246895405#2 256118476#0 -256118475 256118475"/>
    </vehicle>
    <vehicle id="27" depart="1.35">
        <route edges="-399365370 399365370 -256117484#1 -256117484#0 462742375#3 462742375#4 462742375#5 469429386#0 464541887#2 464541887#3 469432285#0 469432285#1 469432285#2 469432285#3 469432285#4 469432285#5 462334370 462765082 462344514 215181897#0 215181897#1 215181897#2 215181897#3 215181897#4 215181897#5 215181897#6 462817589#0 462817589#1 246904203 443621382#0 443621382#1 462802718 472264205#0 472264205#1 462742377#0 462742377#1 462742377#2 462742377#3 462742378 462744226#0 462744226#1 462744226#2 462744226#3 -255388795#4 -255388795#3 -255388797 -103914252#7 255388798"/>
    </vehicle>
    <vehicle id="28" depart="1.40">
        <route edges="-397406282#1 397406282#1 397406282#2 397406266#2 397406266#3 397406266#4 -397406258#5 397406261#0 397406261#1 397406262#0 397406262#1 -91990979#1 -91990979#0 42310047 455431570 443619949 -210970615#1 -210970615#0 -58801402 -247113642#1 -247113642#0 247113631 443621379 58801396#0 58801396#1 472263801#0 472263801#1 472263801#2 472263801#3 472263801#4 472263801#5 472263801#6 462334365 461700087#2 461700087#3 462340107 462340108#0 -255352031#1 -255352031#0"/>
    </vehicle>
    <vehicle id="29" depart="1.45">
        <route edges="462340114 461700080 211248019 467770023 468753286#2 468753290 468753289#1 211118189 118425134#0 118425134#1 118425134#2 118425134#3 468753422 -468753284 -118424571 -118424573 -263336452#0 -58801402 -247113642#1 247113647 443759885#1 443606205 259544571#0 259544571#1 259544571#2 259544571#3 259544571#4 259544571#5 462340103#0 443609415#0 103914254#0 246904217#3 -246904217#3"/>
    </vehicle>
    <vehicle id="30" depart="1.50">
        <route edges="255388574#0 -255388574#0 256118452#0 256118452#1 443621387#1 443621389#0 156742399#0 156742399#1 156742399#2 103914577#0 103914577#1 103914577#2 103914577#3 443621379 58801396#0 58801396#1 472263801#0 472263801#1 472263801#2 472263801#3 472263801#4 472263801#5 472263801#6 462334365 461700087#2 461700087#3 462340106#0 462340106#1 462340106#2 472354321 313039005 469429382#0 469429382#1 469429382#2 462742375#0 462742375#1 462742375#2 462742375#3 462742375#4 462742375#5 469429383#0 469429383#1 469429383#2 469429383#3 469429383#4 464541879 448000714 464541882#0 464541882#1 464541882#2 469429396#0 469429396#1 -472679926#4"/>
    </vehicle>
    <vehicle id="31" depart="1.55">
        <route edges="472631503#2 469432294 58801384 462949522#0 462949522#1 455467467 472263800#0 472263800#1 443759884 247113642#0 247113642#1 58801402 210970615#0 210970615#1 443541721#0 443541721#1 306485567"/>
    </vehicle>
    <vehicle id="32" depart="1.60">
        <route edges="211118658#0 211118656#2 467772312#4 467772312#5 467772312#6 467772312#7 467772312#8 118337848#1 118337848#2 118337848#3 118337848#4 468753286#0 211248020 467770022 118337851 295443569#0 295443569#1 462334363#0 462334363#1 462334366#0 462334366#1 461700087#0 461700087#1 461700087#2 461700087#3 462340107 462340113 469432289#0 103914571#4"/>
    </vehicle>
    <vehicle id="33" depart="1.65">
        <route edges="462742376#4 462334376 462334377#0 462334377#1 443759883#0 443759883#1 103914248#1 462813772 462813765#0 462813765#1 462813765#2 462813766"/>
    </vehicle>
    <vehicle id="34" depart="1.70">
        <route edges="462949521#1 462949521#2 447990269 447981536#0 447981536#1 447981536#2 447981536#3 472631506#0 472631506#1 472623518 472624449 462813773#0 462813773#1 469429378 464122996#0 464122996#1 464122996#2 464122996#3 464122996#4 464122996#5 464122996#6 256116845#0 256116845#1 256116845#2 464541879 448000714 464541882#0 464541882#1 464541882#2 469429396#0 469429396#1 469429396#2 469429396#3 447987020 447987018 -469206988#4 -469206988#3 -469206988#2 -469206988#1 -469206988#0 -469206991 -464541883#3 -464541883#2 -464541883#1 -464541883#0 -469206961 -469206963 -469207063#2 -469207026#1 469207025"/>
    </vehicle>
    <vehicle id="35" depart="1.75">
        <route edges="332694978#3 -247113634#5 -247113634#4 462952189#1 462952189#2 462952186#0 462952186#1 462819768#0 462819768#1 469429377 472624449 462813773#0 462813773#1 215184535#0 215184535#1 215184535#2 469429379#0 469429379#1 469429379#2 295443570 462334363#0 462334363#1 462334366#0 462334366#1 469429391#1 443759884 247113642#0 247113642#1 58801402 210970615#0 210970615#1 443541721#0 443541721#1 443541721#2 91990979#0 91990979#1 -397406262#1 -397406262#0 -397406261#1 -397406261#0 397406258#5 -397406266#4 -397406266#3 -397406266#2 -397406266#1 -397406266#0 397406275 -397406275"/>
    </vehicle>
    <vehicle id="36" depart="1.80">
        <route edges="306482837#2 306482836#2 462813774#1 462813774#2 462817590#0 462817590#1 459584179 472623524#0 247113617#0 247113617#1 -247113643#1"/>
    </vehicle>
    <vehicle id="37" depart="1.85">
        <route edges="469432290#0 472629525#1 468339024 469432291 468339026#0 468339026#1 468339026#2 472629523#1 448000715#0 58801387#2 447990270#0 447990270#1 447990270#2 472263795#1"/>
    </vehicle>
    <vehicle id="38" depart="1.90">
        <route edges="471727266 472629532 470736429 470736427 470752850 472629534 472629535 472631494 470736426 470736428 247113620#0 247113620#1 247113620#2 247113620#3 255393895#0 255393895#1 -255393894 255393882#1 -255393882#1"/>
    </vehicle>
    <vehicle id="39" depart="1.95">
        <route edges="469429395#0 -256116846#2 -256116846#1 -256116846#0 -464134309#1 464541886#1 464541888#0 464541888#1 464133648#0 464133648#1 464133648#2 464133648#3 464133648#4 464133648#5 464133648#6 464133648#7 463737882 472355268#0 472355268#1 472355268#2 469432289#0 469432289#1 469432289#2 462813765#1 462813765#2 462819771#0 462819771#1 462817589#0 462817589#1 246904203 443621382#0 443621382#1 462802718 472264205#0 259544571#4 462742376#1"/>
    </vehicle>
    <vehicle id="40" depart="2.00">
        <route edges="447981536#3 472631503#0 472629518#3 462340099#3 462340099#4 462340099#5 462340099#6 468339029 472629524 472629526#0 472629526#1 472629526#2 103914572#0 103914572#1 103914572#2 463737884#0 463737884#1 463737884#2 463737884#3 463737884#4 256116015#0 256116015#1 -256116016#6 -256116016#5 -256116016#4 -256116016#3"/>
    </vehicle>
    <vehicle id="41" depart="2.05">
        <route edges="-256117457#3 -470734108#1 -470734108#0 462742372#3 468342407#1 469432284#0 469432284#1 462742375#5 469429383#0 469429383#1 469429383#2 -256116847#4 -256116847#3"/>
    </vehicle>
    <vehicle id="42" depart="2.10">
        <route edges="464541885 448000711 464541886#0 464541886#1 464541888#0 464541888#1 464133648#0 464133648#1 464133648#2 464133648#3 464133648#4 464133648#5 464133648#6 464133648#7 463737882 472355268#0 472355268#1 472355268#2 469432289#0 469432289#1 469432289#2 469432289#3 462813771 472624452 472629518#0 472629518#1 472629518#2 472629518#3 472629518#4 472629518#5 472629518#6 447990269 103914261#0"/>
    </vehicle>
    <vehicle id="43" depart="2.15">
        <route edges="215181897#0 215181897#1 215181897#2 215181897#3 215181897#4 215181897#5 215181897#6 462817589#0 462817589#1 246904203 443621382#0 443621382#1 462802718 443607140 462340102 462340103#0 462340103#1 462340103#2 443609420 462334373#0 259542392 472303868 259542390 406397501#2 224702330 49181439"/>
    </vehicle>
    <vehicle id="44" depart="2.20">
        <route edges="-307437419#7 307437419#7 464541887#1 464541887#2 464541887#3 469432285#0 469432285#1 469432285#2 469432285#3 469432285#4 469432285#5 462334370 462765082 462344514 295443570 462334363#0 462334363#1 462334366#0 462334366#1 469429391#1 443759884 247113642#0 247113642#1 58801402 210970615#0 210970615#1 443541721#0 443541721#1 306485567 -306485567"/>
    </vehicle>
    <vehicle id="45" depart="2.25">
        <route edges="294686230#0 -294686230#0 118425405 294686228 464541883#0 464541883#1 464541883#2 464541883#3 469206991 469206988#0 469206988#1 469206988#2 469206988#3 469206988#4 447987019 300655406 306265837#0 306265837#1 306265837#2 306265837#3 306265837#4 306265837#5 447987027 464541886#0 464541886#1 464541887#0 464541887#1 464541887#2 464541887#3 469432285#0 -306848042 306848064#2 -306848036#1"/>
    </vehicle>
    <vehicle id="46" depart="2.30">
        <route edges="255388794#2 -306537042#0 462744226#2 462744226#3 462744226#4 -103914254#9 462340105#2 462340105#3 462340105#4 462340105#5 462340105#6 462340105#7 462340105#8 462340105#9 462742376#0 462742376#1 462742376#2 462742376#3 462742376#4 462334376 462334377#0 462334377#1 58801384 462949522#0 -103914255 255362783#14 255362783#15 255362783#16 -255362791#1 255362791#1"/>
    </vehicle>
    <vehicle id="47" depart="2.35">
        <route edges="307100069#2 307100069#3 255393067#1 -255393081#1 -255393081#0 472629533#1 472629533#2 472629533#3 472629533#4 469429392#0 469429392#1 247113624#1 247113624#2 247113624#3 472624442#0 472624442#1 462819765 459577892#0 459577892#1 459577892#2 462819768#0 462819768#1 469429377 472624449 462813765#0 462813765#1 462813765#2 462813766 462819774#0 462819774#1 -103914571#0 215181897#5 -255361859#4 -255361859#3 -255361859#2 255361860#0 255361860#1"/>
    </vehicle>
    <vehicle id="48" depart="2.40">
        <route edges="462819780 462340110#0 462340110#1 462742374#1 462742374#2 464122996#4 464122996#5 464122996#6 464541878 472355266#0 472355266#1 471727261#0 471727261#1 471727261#2 471727261#3 471727261#4 471727261#5 472629529#0 472629529#1 472629529#2 447990272 448000710#0 -255394125#2 255394125#2"/>
    </vehicle>
    <vehicle id="49" depart="2.45">
        <route edges="-306848063#2 -306848063#1 -306848063#0 -306848056#0 -462340109#1 -462340109#0 -462340110#2 -462340110#1 -462340110#0 462340112#0 462340112#1 464541876#0 464541876#1 469429381 462344514 295443570 462334363#0 462334363#1 462334366#0 462334366#1 469429391#1 443759884 247113642#0 247113642#1 58801402 210970615#0 210970615#1 443541721#0 443541721#1 443541721#2 42310047 455431569#0"/>
    </vehicle>
    <vehicle id="50" depart="2.50">
        <route edges="-49397099#1 -49397099#0"/>
    </vehicle>
    <vehicle id="51" depart="2.55">
        <route edges="464541883#3 -464541883#3 469206997 469206994 469207017#0 469207011#0"/>
    </vehicle>
    <vehicle id="52" depart="2.60">
        <route edges="-255393065#5 -255393065#4 -255393065#3 255393896#0 255393896#1 255393896#2 247113620#4 247113620#5 247113620#6 472631498#0 472631498#1 472631498#2 472631498#3 472631498#4 472631498#5 472631498#6 462952190 462344515#0 462344515#1 462344515#2 462344515#3 459577894#0 459577894#1 462817591 246904200 246904204 472629522 472629523#0 472629523#1 448000715#0 448000715#1 448000715#2 472263797#0 472263797#1 443759882 462340105#0 462340105#1 462340105#2 -255386813#1 -255386813#0 255386813#0"/>
    </vehicle>
    <vehicle id="53" depart="2.65">
        <route edges="464134309#0 464541886#1 464541888#0 464541888#1 464133648#0 464133648#1 103914575#1 -462340109#5 -462340109#4 256117490#0"/>
    </vehicle>
    <vehicle id="54" depart="2.70">
        <route edges="103914576 462950388 103914577#2 103914577#3 443621379 58801396#0 58801396#1 472263801#0 255362788 -255362787#1 -255362787#0 -306628760#1 -255362783#17 -255362783#16 255362784 -255362784"/>
    </vehicle>
    <vehicle id="55" depart="2.75">
        <route edges="467772312#3 467772312#4 467772312#5 467772312#6 467772312#7 467772312#8 118337848#1 118337848#2 118337848#3 118337848#4 468753286#0 211248020 467770022 118337851 295443569#0 295443569#1 462334363#0 462334363#1 462334366#0 462334366#1 461700087#0 461700087#1 461700087#2 461700087#3 462340106#0 462340106#1 462340106#2 472354316 472354323 472629516#0 472629516#1 256117508 472355267 464122996#0 464122996#1 464122996#2 464122996#3 464122996#4 464122996#5 464122996#6 464541878 472355266#0 472355266#1 471727261#0 471727261#1 471727261#2 471727261#3 471727263 472631498#2 -256116014#10 256116014#10"/>
    </vehicle>
    <vehicle id="56" depart="2.80">
        <route edges="-255352030#0 462340108#2 254759229 -103914571#1 -103914571#0 215181897#5 215181897#6 462817589#0 462817589#1 246904203 443621382#0 443621382#1 462802718 472264205#0 472264205#1 462742377#0 462742377#1 462742377#2 462742377#3 462742378 462744226#0 103914269#7 103914269#8 103914269#9 103914269#10 103914269#11 103914269#12 -103914269#12"/>
    </vehicle>
    <vehicle id="57" depart="2.85">
        <route edges="469429383#0 469429383#1 469429383#2 469429383#3 469429383#4 464541879 448000714 464541880#0 464541880#1 464541880#2 464541880#3 472631498#0 472631498#1 472631498#2 472631498#3 472631498#4 472631498#5 472631498#6 462952190 462344515#0 462344515#1 462344515#2 462344515#3 459577894#0 462817590#1"/>
    </vehicle>
    <vehicle id="58" depart="2.90">
        <route edges="-306537046#2 306537046#2 103914258#0 103914258#1 103914263#1 103914263#2 443606203#0 443606203#1 443606203#2 443759879#0 443759879#1 472263798 462334372 443609421#0 462340091 462340099#0 462949520#2 469432294 443759883#0 443759883#1 443759883#2 443759883#3 462819774#0 462819774#1 462819774#2 462819774#3 462340106#0 462340106#1 462340106#2 472354321 313039005 469429382#0 469429382#1 469429382#2 462742375#0 462742375#1 462742375#2 462742375#3 462742375#4 462742375#5 469429386#0 464541887#2 464541887#3 469432285#0 469432285#1 469432285#2 256117460 -256117459#0 -306848033#3"/>
    </vehicle>
    <vehicle id="59" depart="2.95">
        <route edges="-312537881 -255394127#0 306982142#2 247113638#1 463737884#9 463737884#10 472354324#0 472354324#1 472354324#2 464133648#0 464133648#1 464133648#2 464133648#3 464133648#4 464133648#5 464133648#6 464133648#7 463737882 472355268#0 472355268#1 472355268#2 469432289#0 -103914571#3 255351824#0 -255351826 255351825#2"/>
    </vehicle>
    <vehicle id="60" depart="3.00">
        <route edges="-316015555#1 316015555#1 -306482836#0 472629526#2 103914572#0 103914572#1 247113635#2 462952186#1 462819768#0 462819768#1 469429377 472624449 462813773#0 462813773#1 215184535#0 215184535#1 215184535#2 469429379#0 469429379#1 469429379#2 295443570 462334363#0 462334363#1 462334366#0 462334366#1 469429391#1 443759884 247113642#0 247113642#1 58801402 210970615#0 210970615#1 443541721#0 443541721#1 443541721#2 91990979#0 91990979#1 -397406262#1 -397406262#0 -397406261#1 -397406261#0 397406258#5 -397406266#4 -397406266#3 -397406266#2"/>
    </vehicle>
    <vehicle id="61" depart="3.05">
        <route edges="462952186#1 247113621 103914572#0 103914572#1 103914572#2 463737884#0 463737884#1 463737884#2 463737884#3 463737884#4 463737884#5 463737884#6 463737884#7 463737884#8 463737884#9 463737884#10 472354324#0 472354324#1 256116845#1 256116845#2 464134309#0 464541886#1 464541887#0 -307437419#7 -307437419#6 -307437419#5 -307437419#4 -307437419#3 -307437419#2"/>
    </vehicle>
    <vehicle id="62" depart="3.10">
        <route edges="-255393898#1 -255393898#0 -255393895#3 -255393895#2 -255393895#1 -255393895#0 247113620#4 247113620#5 247113620#6 472631496#0 472631496#1 472631496#2 471727261#0 471727261#1 471727261#2"/>
    </vehicle>
    <vehicle id="63" depart="3.15">
        <route edges="-246904198#0 462742377#3 462742378 462744226#0 103914269#7 462340105#7 462340105#8 462340105#9 462742376#0 462742376#1 462742376#2 462742376#3 462742376#4 462334376 462334377#0 462334377#1 443759883#0 443759883#1 443759883#2 443759883#3 462819774#0 462819774#1 462819774#2 462819774#3 462340106#0 469429379#2 215181897#0 215181897#1 -255352035#1 255352036#0 255352036#1 255363620#0 255363620#1 255363620#2 -255363620#2"/>
    </vehicle>
    <vehicle id="64" depart="3.20">
        <route edges="-306482834 306482834 472629521#1 472629521#2 462819768#1 469429377 472624449 462813773#0 462813773#1 469429378 464122996#0 467773237 467773238#2 -467773236#0 467773236#0"/>
    </vehicle>
    <vehicle id="65" depart="3.25">
        <route edges="255391218#2 247113617#0 247113624#3 472624445#0 472624445#1 247113630#0 247113630#1 247113630#2 247113630#3 462952189#0 462952189#1 463737884#1 463737884#2 463737884#3 463737884#4 463737884#5 463737884#6 463737884#7 463737884#8 463737884#9 463737884#10 472354324#0 472354324#1 472354324#2 464133648#0 464133648#1 103914575#1 462340109#6 256116847#1 256116847#2"/>
    </vehicle>
    <vehicle id="66" depart="3.30">
        <route edges="-263335837#0 -263333983#0 263335835#0 -306485567 443541721#2 42310047 455431570 443619949 -210970615#1 -210970615#0 -58801402 -247113642#1 -247113642#0 247113631 443621379 58801396#0 58801396#1 472263801#0 472263801#1 472263801#2 472263801#3 472263801#4 472263801#5 472263801#6 462334365 461700087#2 461700087#3 462340107 462340113 469432289#0 469432289#1 469432289#2 469432289#3 462813771 472629517#0 472629517#1 472623519 469432290#0 469432290#1 472629526#0 472629526#1 472629526#2 103914572#0 103914572#1 -247113635#1 -247113635#0 247113635#0"/>
    </vehicle>
    <vehicle id="67" depart="3.35">
        <route edges="472679926#9 472679926#10 472679926#0 247113627#1 460893411#0 472629533#3 472629533#4 469429392#0 469429392#1 247113624#1 247113624#2 -247113617#0 -255391218#2 255391219#0 255391219#1 255393055#1"/>
    </vehicle>
    <vehicle id="68" depart="3.40">
        <route edges="-462813768 462813773#0 462813773#1 469429378 464122996#0 464122996#1 464122996#2 464122996#3 464122996#4 464122996#5 464122996#6 256116845#0 256116845#1 256116845#2 464134309#0 464541886#1 464541887#0 -307437419#7"/>
    </vehicle>
    <vehicle id="69" depart="3.45">
        <route edges="472629527 472623523#0 472623523#1 472624442#1 462819765 459577894#0 459577894#1 462817591 246904200 246904204 472629522 472629523#0 472629523#1 448000715#0 448000715#1 448000715#2 472263798 462334372 462334373#0 462334373#1 462334374 462334375 462340101#0 462340101#1 462802718 472264205#0 472264205#1 462742377#0 462742377#1 462742377#2 462742377#3 462742378 462744226#0 103914269#7 462340105#7 -246904217#6"/>
    </vehicle>
    <vehicle id="70" depart="3.50">
        <route edges="462819771#1 462817589#0 462817589#1 462949522#0 462949522#1 103914574 455431572#0 455431572#1 255385470#0 255385470#1 255385471"/>
    </vehicle>
    <vehicle id="71" depart="3.55">