<?xml version="1.0" encoding="UTF-8"?>

<!-- generated on 02/22/17 12:49:13 by SUMO duarouter Version 0.24.0
<?xml version="1.0" encoding="UTF-8"?>

<configuration xmlns:xsi="http://www.w3.org/2001/XMLSchema-instance" xsi:noNamespaceSchemaLocation="http://sumo.dlr.de/xsd/duarouterConfiguration.xsd">

    <input>
        <net-file value="input_net.net.xml"/>
        <trip-files value="trips.trips.xml"/>
    </input>

    <output>
        <output-file value="routes.rou.xml"/>
    </output>

</configuration>
-->

<routes xmlns:xsi="http://www.w3.org/2001/XMLSchema-instance" xsi:noNamespaceSchemaLocation="http://sumo.dlr.de/xsd/routes_file.xsd">
    <vehicle id="0" depart="0.00">
        <route edges="-103914254#4 -103914254#3 -103914254#2 -103914254#1 -103914254#0 443609415#1 443609420 443609421#0 462340091 462340099#0 462340099#1 462340099#2 462340099#3 447981536#3 472631506#0 472631506#1 472623518 472624449 462813773#0 462813773#1 469429378 464122996#0 464122996#1 464122996#2 464122996#3 464122996#4 464122996#5 464122996#6 256116845#0"/>
    </vehicle>
    <vehicle id="1" depart="0.10">
        <route edges="-255385469#0 443621382#1 462802718 472264205#0 259544571#4 462742376#1 462742376#2 462742376#3 462742376#4 462334376 462334377#0 462334377#1 443759883#0 443759883#1 103914248#1 462813772 462813773#0 462813773#1 469429378 464122996#0 467773237 -467773238#1 467773238#1"/>
    </vehicle>
    <vehicle id="2" depart="0.20">
        <route edges="-247113638#1 247113638#1 247113638#2 472355266#1 472355266#2 472355266#3 472355266#4 462952186#0 462952186#1 462819768#0 462819768#1 468339024 469432291 468339026#0 468339026#1 468339026#2 472629523#1 448000715#0 448000715#1 448000715#2 472263797#0 472263797#1 443759882 462340105#0 246904217#0 246904217#1 -246904217#1"/>
    </vehicle>
    <vehicle id="3" depart="0.30">
        <route edges="443759866#1 443759866#2 103914263#0 103914263#1 103914263#2 443606203#0 443606203#1 443606203#2 443759879#0 443612011 462334371#2 447990271#0 472263796#2 448000716 447981536#0 447981536#1 462340092 462340099#5 462340099#6 468339029 472629524 472629526#0 472629526#1 306482836#0 306482836#1 -306482837#2"/>
    </vehicle>
    <vehicle id="4" depart="0.40">
        <route edges="307249693#0 307249693#1 -256116846#0 -464134309#1 464541886#1 464541888#0 464541888#1 464133648#0 464133648#1 464133648#2 464133648#3 464133648#4 464133648#5 464133648#6 464133648#7 463737882 472355268#0 472355268#1 472355268#2 469432289#0 -103914571#3 255351824#0 -255351826 -255351825#1 255351825#1"/>
    </vehicle>
    <vehicle id="6" depart="0.60">
        <route edges="-306848064#2 306848042 469432285#1 469432285#2 469432285#3 469432285#4 469432285#5 462334370 462765082 464541877 462340114 461700080 211248019 467770023 468753286#2 468753286#3 211118187 468753291#0 468753291#1 468753279#0 468753279#1 468753279#2 468753279#3 468753279#4 468753280#0 467941515#0 467772312#5"/>
    </vehicle>
    <vehicle id="7" depart="0.70">
        <route edges="462813774#0 462813774#1 247113634#0 459577892#1 459577892#2 462819768#0 462819768#1 469429377 472624449 462813765#0 462813765#1 462813765#2 462819771#0 462819771#1 462817589#0 462817589#1 462949522#0 -103914255 255362783#14 255362783#15 -255362790#3 -255362790#2 -255362790#1"/>
    </vehicle>
    <vehicle id="8" depart="0.80">
        <route edges="-103914269#18 103914269#18 103914269#19 246904217#2 -103914254#0 443609415#1 443609420 443609421#0 462340091 462340099#0 462949520#2 469432294 443759883#0 443759883#1 443759883#2 443759883#3 462819774#0 462819774#1 462819774#2 462819774#3 462340106#0 462340106#1 462340106#2 472354316 472354323 472629516#0 472629516#1 462819780 462340110#0 462340110#1 462340110#2 462340109#0 256117482#2"/>
    </vehicle>
    <vehicle id="9" depart="0.90">
        <route edges="256116025#3 -256116025#3 306848059#0 306848059#1 471727261#0 463737884#7 463737884#8 463737884#9 463737884#10 472354324#0 472354324#1 472354324#2 464133648#0 464133648#1 464133648#2 464133648#3 464133648#4 464133648#5 464133648#6 464133648#7 464541890 462340112#0 462340112#1 464541876#0 464541876#1 469429381 462344514 295443570 462334363#0 462334363#1 462334366#0 462334366#1 469429391#1 443759884 247113642#0 247113642#1 58801402 210970615#0 210970615#1 443541721#0 443541721#1 443541721#2 91990979#0 91990979#1 91990979#2 444501253 444443540"/>
    </vehicle>
    <vehicle id="10" depart="1.00">
        <route edges="-469207008#0 -469207033#3 -469207033#2 -469207033#1 -469207033#0 -469207020 -469207022 464541883#2 464541883#3 469206991 469206988#0 469206988#1 469206988#2 469206988#3 469206988#4 447987019 300655406 306265837#0 306265837#1 306265837#2 306265837#3 306265837#4 306265837#5 464541885 448000712 448000714 464541880#0 464541880#1 464541880#2 464541880#3 472631498#0 472631498#1 472631498#2 472631498#3 472631498#4 472631498#5 472631498#6 462952190 462344515#0 462344515#1 462344515#2 462344515#3 459577892#0 -247113634#0 462813774#2 459577893"/>
    </vehicle>
    <vehicle id="11" depart="1.10">
        <route edges="397406277#1 -397406277#1 -397406277#0 397406266#1 397406266#2 397406266#3 397406266#4 -397406258#5 397406261#0 397406261#1 397406262#0 397406262#1 -91990979#1 -91990979#0 42310047 455431570 443619949 -210970615#1 118424566 118424573 118424571 468753284 467772312#0 467941517 -211118658#2 -211118657#0 -211118654#3"/>
    </vehicle>
    <vehicle id="12" depart="1.20">
        <route edges="462334366#0 462334366#1 461700087#0 461700087#1 461700087#2 461700087#3 462340107 462340113 469432289#0 469432289#1 469432289#2 469432289#3 462813771 472629517#0 472629517#1 472623519 469432290#0 469432290#1 472629526#0 472629526#1 472629526#2 103914572#0 103914572#1 103914572#2 463737884#0 462952189#2 247113652"/>
    </vehicle>
    <vehicle id="13" depart="1.30">
        <route edges="469432285#4 462742373#2 462742374#0 462742374#1 462742374#2 464122996#4 464122996#5 464122996#6 464541878 472355266#0 472355266#1 472355266#2 472355266#3 -332694978#6 -332694978#5 -332694978#4 -332694978#3 -332694978#2 472631498#5 472631498#6 462952190"/>
    </vehicle>
    <vehicle id="14" depart="1.40">
        <route edges="247113627#1 469429393#1 -470752850 472629533#0 255393081#0 255393081#1 -255393067#1 -307100069#3 -307100069#2 -307100069#1 -307100069#0"/>
    </vehicle>
    <vehicle id="15" depart="1.50">
        <route edges="-256116862#2 256116862#2 307249699 469429386#2 469429390 469432283#0 246895352#0 462742372#2"/>
    </vehicle>
    <vehicle id="16" depart="1.60">
        <route edges="467773235 -467773236#1 -467773238#2 -467773238#1 467773239 464122996#2 464122996#3 58801373#0 464133648#6 464133648#7 463737882 472355268#0 472355268#1 472355268#2 469432289#0 -103914571#3 -103914571#2 -254759229 -255351825#2"/>
    </vehicle>
    <vehicle id="17" depart="1.70">
        <route edges="462340109#4 469432284#3 469432284#4 464122996#6 464541878 472355266#0 472355266#1 472355266#2 472355266#3 -332694978#6 -332694978#5 -332694978#4 -332694978#3 -332694978#2 -332694978#1 -332694978#0 332694978#0"/>
    </vehicle>
    <vehicle id="18" depart="1.80">
        <route edges="256118476#0 -256118476#0 246895405#3 246895405#4 246895405#5 246895405#6 156742399#0 156742399#1 443606206 259544571#0 259544571#1 259544571#2 259544571#3 472264205#1 462742377#0 462742377#1 462742377#2 462742377#3 462742378 462744226#0 462744226#1 462744226#2 462744226#3 462744226#4 -103914254#9 462340105#2 -255386813#1"/>
    </vehicle>
    <vehicle id="19" depart="1.90">
        <route edges="447987019 300655406 306265837#0 306265837#1 306265837#2 306265837#3 306265837#4 306265837#5 447987027 464541886#0 464541886#1 464541888#0 464541888#1 464133648#0 464133648#1 464133648#2 464133648#3 464133648#4 464133648#5 464133648#6 464133648#7 463737882 472355268#0 472355268#1 472355268#2 469432289#0 469432289#1 469432289#2 462813765#1 462813765#2 462819771#0 462819771#1 462817589#0 462817589#1 246904203 443621382#0 443621382#1 462802716#0 462802716#1 462802716#2 443606207 443759885#3 443759867#0 246895408#0 246895408#1 443621390 443551615 443759866#0 443759866#1 246895405#1 246895405#2 246895405#3 256118459#0"/>
    </vehicle>
    <vehicle id="20" depart="2.00">
        <route edges="-455467466 -455322168 -455431572#2 -455431572#1 -455431572#0 455431571 443621381 462951163 462340088 462340096#0 462340096#1 469429376 462949521#0 462949521#1 462949521#2 58801387#0 58801387#1 58801387#2 447990271#0 447990271#1 447990271#2 472629519 246904209 58801375#0 58801375#1 459584178 462819764#0 462819764#1 472629527 472623522 472624447#0 472624447#1 332694979#2 332694980 460893411#3 -307102517 255393065#14"/>
    </vehicle>
    <vehicle id="21" depart="2.10">
        <route edges="-307246976#2 307246976#2 463737884#3 463737884#4 463737884#5 463737884#6 463737884#7 463737884#8 463737884#9 463737884#10 472354324#0 472354324#1 472354324#2 464133648#0 464133648#1 464133648#2 464133648#3 464133648#4 464133648#5 464133648#6 464133648#7 464541890 462340112#0 462340112#1 464541876#0 464541876#1 469429381 464541877 462340114 461700080 211248019 467770023 468753286#2 468753286#3 211118187 468753291#0 468753291#1 468753279#0 468753279#1 468753279#2 468753279#3 468753279#4 468753280#0 467941515#0 467941515#1 467941515#2"/>
    </vehicle>
    <vehicle id="22" depart="2.20">
        <route edges="448000715#2 472263798 462334372 443609421#0 462340091 462340099#0 462949520#2 469432294 58801384 246904203 443621381 462951163"/>
    </vehicle>
    <vehicle id="23" depart="2.30">
        <route edges="472354323 472629516#0 472629516#1 256117508 472355267 464122996#0 464122996#1 464122996#2 464122996#3 464122996#4 464122996#5 103914575#0 103914575#1 462340109#6 256116847#1 256116847#2"/>
    </vehicle>
    <vehicle id="24" depart="2.40">
        <route edges="-469432281 -294686230#2 -294686230#1 -294686230#0 118425405 294686228 464541883#0 464541883#1 464541883#2 464541883#3 469206991 469206988#0 469206988#1 469206988#2 469206988#3 469206988#4 447987019 300655406 306265837#0 306265837#1 306265837#2 306265837#3 306265837#4 306265837#5 464541885 448000712 448000713#0 448000713#1 472355266#0 472355266#1 472355266#2 472355266#3 472355266#4 462952186#0 462952186#1 247113621 462813774#0 -306482836#2 306482837#3"/>
    </vehicle>
    <vehicle id="25" depart="2.50">
        <route edges="469207033#0 -469207033#0 -469207020 -469207022 464541883#2 464541883#3 469206991 469206988#0 469206988#1 469206988#2 469206988#3 469206988#4 447987019 300655406 306265837#0 306265837#1 306265837#2 306265837#3 306265837#4 306265837#5 447987027 464541886#0 464541886#1 464541888#0 464541888#1 464541889 256116845#0 256116845#1 256116845#2"/>
    </vehicle>
    <vehicle id="26" depart="2.60">
        <route edges="-255363625 255363606#1 -306964129 -255363620#3 255363623 255363622#1 472263801#6 462334365 461700087#2 461700087#3 462340106#0 462340106#1 462340106#2 472354321 313039005 469429382#0 469429382#1 469429382#2 462742375#0 462742375#1 462742375#2 462742375#3 462742375#4 462742375#5 469429383#0 469429383#1 469429383#2 469429383#3 469429383#4 464541879 448000714 464541882#0 464541882#1 464541882#2 469429394#0 469429394#1 469429394#2"/>
    </vehicle>
    <vehicle id="27" depart="2.70">
        <route edges="464133648#4 464133648#5 464133648#6 464133648#7 463737882 472355268#0 472355268#1 472355268#2 469432289#0 469432289#1 469432289#2 469432289#3 462813771 472629517#0 472629517#1 472623519 469432290#0 469432290#1 472629526#0 -472629521#1 -306482834 -306482837#0"/>
    </vehicle>
    <vehicle id="28" depart="2.80">
        <route edges="471727261#5 472629529#0 247113620#6 472631496#0 472631496#1 472631496#2 472355266#2 307246976#2 463737884#3 463737884#4 256116015#0 256116015#1"/>
    </vehicle>
    <vehicle id="29" depart="2.90">
        <route edges="256117459#1 -256117459#1 -256117460 469432285#3 469432285#4 469432285#5 462334370 462765082 462344514 295443570 462334363#0 462334363#1 462334366#0 462334366#1 469429391#1 443759884 247113642#0 247113642#1 58801402 210970615#0 210970615#1 443541721#0 443541721#1 443541721#2 91990979#0 91990979#1 -397406262#1 -397406262#0 -397406261#1 -397406261#0 397406258#5 -397406266#4 -397406266#3 -397406266#2 -397406282#2 -397406282#1 -397406282#0"/>
    </vehicle>
    <vehicle id="30" depart="3.00">
        <route edges="471727266 472629532 470736429 470736427 472629533#0 472629533#1 472629533#2 472629533#3 472629533#4 469429392#0 469429392#1 247113624#1 247113624#2 247113624#3 472624442#0 472624442#1 462819765 459577894#0 459577894#1 462817591 246904200 246904204 472629522 472629523#0 472629523#1 448000716 103914261#0 103914261#1 462949520#0"/>
    </vehicle>
    <vehicle id="31" depart="3.10">
        <route edges="397406265 397406262#0 397406262#1 -91990979#1 -91990979#0 42310047 455431570 443619949 -210970615#1 -210970615#0 -58801402 -247113642#1 -247113642#0 247113631 443621379 58801396#0 58801396#1 472263801#0 472263801#1 472263801#2 472263801#3 472263801#4 472263801#5 472263801#6 462334365 461700087#2 461700087#3 462340106#0 462340106#1 462340106#2 472354321 313039005 469429382#0 469429382#1 469429382#2 462742375#0 462742375#1 462742375#2 462742375#3 462742375#4 462742375#5 469429383#0 469429383#1 469429383#2 469429383#3 469429383#4 464541879 448000714 464541882#0 464541882#1 464541882#2 469429396#0 469429396#1 469429396#2 469429396#3 447987020 447987018 -469206988#4 -469206988#3 -469206988#2 -469206988#1 -469206988#0 -469206991 -464541883#3 -464541883#2 -464541883#1 -464541883#0 -469206982#1 469206982#1"/>
    </vehicle>
    <vehicle id="32" depart="3.20">
        <route edges="-247113643#1 247113643#1 247113643#2 472624445#1 247113630#0 247113630#1 462344516#0 462344516#1 462344516#2 472629529#0 472629529#1 472629529#2 447990272 448000710#0 448000710#1 464541882#1 464541882#2 469429396#0 469429396#1 469429396#2 469429396#3 447987020 447987018 -469206988#4 -469206988#3 469206988#3"/>
    </vehicle>
    <vehicle id="33" depart="3.30">
        <route edges="-255391216#2 255391217#1 255393053#1 58801375#1 459584178 462819765 459577892#0 459577892#1 459577892#2 462819768#0 462819768#1 469429377 472624449 462813773#0 462813773#1 469429378 256117504 464541890 462340112#0 462340112#1 464541876#0 464541876#1 469429381 464541877 462340114 461700080 211248019 467770023 468753286#2 468753286#3 211118187"/>
    </vehicle>
    <vehicle id="34" depart="3.40">
        <route edges="103914576 462950388 103914577#2 103914577#3 443621379 443621380 455431571 443621381 462951163 462340088 462340096#0 462340096#1 469429376 462949521#0 462949521#1 462949521#2 447990269 103914261#0 103914261#1 462949520#0"/>
    </vehicle>
    <vehicle id="35" depart="3.50">
        <route edges="255351825#2 -462340108#2 -462340108#1 -462340108#0 246895360 469429380#0 469429380#1 462819780 462340110#0 462340110#1 462742374#1"/>
    </vehicle>
    <vehicle id="36" depart="3.60">
        <route edges="-306848059#1 306848059#1 472355266#2 472355266#3 472355266#4 462952186#0 462952186#1 462819768#0 462819768#1 468339024 469432291 468339026#0 468339026#1 468339026#2 472629523#1 448000715#0 448000715#1 448000715#2 472263797#0 472263797#1 443759882 462340105#0 246904217#0 246904217#1 -103914269#19 -103914269#18 103914269#18"/>
    </vehicle>
    <vehicle id="37" depart="3.70">
        <route edges="-103914252#5 255388794#0 255388794#1 255388794#2 -306537042#0 462744226#2 462744226#3 462744226#4 -103914254#9 462340105#2 462340105#3 462340105#4 462340105#5 462340105#6 462340105#7 462340105#8 462340105#9 462742376#0 462742376#1 462742376#2 462742376#3 462742376#4 462334376 462334377#0 462334377#1 443759883#0 443759883#1 443759883#2 443759883#3 462819774#0 462819774#1"/>
    </vehicle>
    <vehicle id="38" depart="3.80">
        <route edges="306482836#0 -306482836#0 472629526#2 103914572#0 103914572#1 103914572#2 463737884#0 463737884#1 463737884#2 463737884#3 463737884#4 463737884#5 463737884#6 463737884#7 463737884#8 463737884#9 463737884#10 472354325#0 472354325#1 464541882#0 464541882#1 464541882#2 469429396#0 469429396#1 469429396#2 469429396#3 447987020 447987018 -469206988#4 -469206988#3 -469206988#2 -469206988#1 -469206988#0 -469206991 -464541883#3 -464541883#2 -464541883#1 -464541883#0 -294686228 -118425405 294686230#0 -294686230#0"/>
    </vehicle>
    <vehicle id="39" depart="3.90">
        <route edges="-469206961 469206961 464541883#0 464541883#1 464541883#2 464541883#3 469206991 469206988#0 469206988#1 469206988#2 469206988#3 469206988#4 447987019 300655406 306265837#0 306265837#1 306265837#2 306265837#3 306265837#4 306265837#5 464541885 448000712 448000714 464541880#0 464541880#1 464541880#2 464541880#3 472631498#0 472631498#1 472631498#2 472631498#3 472631498#4 472631498#5 472631498#6 462952190 462344515#0 462344515#1 462344515#2 462344515#3 459577894#0 459577894#1 462817591 246904200 246904204 -247113639 472629519 246904209 58801375#0 -255393053#1 255391217#2 255391218#0"/>
    </vehicle>
    <vehicle id="40" depart="4.00">
        <route edges="447990271#2 472629519 246904209 58801375#0 58801375#1 459584178 462819764#0 462819764#1 472629528 462344516#0 462344516#1 332694978#1 472631498#5 472631498#6"/>
    </vehicle>
    <vehicle id="41" depart="4.10">
        <route edges="472264204#0 472264204#1 472264204#2 306265837#2 306265837#3 306265837#4 306265837#5 447987027 464541886#0 464541886#1 464541888#0 464541888#1 464133648#0 464133648#1 464133648#2 464133648#3 464133648#4 464133648#5 464133648#6 464133648#7 463737882 472355268#0 472355268#1 472355268#2 469432289#0 -103914571#3"/>
    </vehicle>
    <vehicle id="42" depart="4.20">
        <route edges="462813765#0 469432289#3 462813772 462813773#0 462813773#1 469429378 464122996#0 464122996#1 464122996#2 464122996#3 464122996#4 464122996#5 464122996#6 256116845#0 256116845#1 256116845#2 464541879 448000714 464541882#0 464541882#1"/>
    </vehicle>
    <vehicle id="44" depart="4.40">
        <route edges="-316015551#1 472263796#1 472263796#2 448000716 103914261#0 103914261#1 462949520#0 462949520#1 462949520#2 469432294 58801384 462949522#0 462949522#1 455467467 472263800#0 472263800#1 443759884 247113642#0 247113642#1 58801402 210970615#0 210970615#1 443541721#0 443541721#1 443541721#2 91990979#0 91990979#1 -397406262#1 -397406262#0 -397406261#1 -397406261#0 397406258#5 -397406266#4 -397406266#3 -397406266#2 -397406266#1 397406277#0 397406277#1 397406277#2 397406277#3 397406269#5 -397406269#5"/>
    </vehicle>
    <vehicle id="45" depart="4.50">
        <route edges="-256118476#0 246895405#3 246895405#4 246895405#5 246895405#6 156742399#0 156742399#1 443606206 259544571#0 259544571#1 259544571#2 259544571#3 259544571#4 259544571#5 462340103#0 462340103#1 462340103#2 462340103#3 462340103#4 462340104 443621383 462334371#0 462334371#1 462334371#2 447990271#0 447990271#1 447990271#2 472629519 246904209 58801375#0 58801375#1 459584179 255393062 472624445#0"/>
    </vehicle>
    <vehicle id="46" depart="4.60">
        <route edges="-306848058#0 -256117486#0 256117482#1 -462340109#0 -462340110#2 -462340110#1 -462340110#0 462340112#0 462340112#1 464541876#0 464541876#1 469429381 462344514 295443570 462334363#0 462334363#1 462334366#0 462334366#1 469429391#1 443759884 247113642#0 247113642#1 58801402 210970615#0 210970615#1 443541721#0 443541721#1 443541721#2 91990979#0 91990979#1 -397406262#1 -397406262#0 -397406261#1 -397406261#0 397406258#5 -397406266#4 -397406266#3 -397406266#2 -397406266#1 -397406266#0 397406266#0"/>
    </vehicle>
    <vehicle id="47" depart="4.70">
        <route edges="256116024 -256116024 215184742#3 -447987015 447987016 472354325#0 472354325#1 464541882#0 464541882#1 464541882#2 469429394#0 469429394#1 -255393907#2 -255393907#1 -255393907#0"/>
    </vehicle>
    <vehicle id="48" depart="4.80">
        <route edges="306537042#4 -306537042#4 -306537042#3 306537046#0 306537046#1 306537046#2 103914258#0 103914258#1 103914263#1 103914263#2 443606203#0 443606203#1 443606203#2 443759879#0 443612011 462334371#2 447990271#0 447990271#1 447990271#2 472629519 246904209 58801375#0 58801375#1 459584178 462819764#0 462819764#1 472629528 462344516#0 462344516#1 462344516#2 472629530#0 -255393896#1 -255393896#0 255393065#3 -255393065#3"/>
    </vehicle>
    <vehicle id="49" depart="4.90">
        <route edges="471727266 472629532 470736429 470736427 470752850 472629534 472629535 472631494 470736426 470736428 247113620#0 247113620#1 247113620#2"/>
    </vehicle>
    <vehicle id="50" depart="5.00">
        <route edges="-255362790#0 255362789#0 255362789#1 255362787#1 255362783#0 255363615#0 255363615#1 472263801#2 472263801#3 472263801#4 472263801#5 472263801#6 462334365 461700087#2 461700087#3 462340106#0 462340106#1 462340106#2 472354321 313039005 469429382#0 469429382#1 469429382#2 462742375#0 462742375#1 462742375#2 462742375#3 462742375#4 462742375#5 469429383#0 469429383#1 469429383#2 469429383#3 469429383#4 464541879 448000714 464541882#0 464541882#1 464541882#2 469429396#0 469429396#1 469429396#2 469429396#3 447987020 447987018 -469206988#4 -469206988#3 -469206988#2 -469206988#1 -469206988#0 -469206991 -464541883#3 -464541883#2 -464541883#1 -464541883#0 -294686228 -118425405 294686230#0 294686230#1 294686230#2 469432281 468335374 468335364#0 468335364#1 468335364#2 468335364#3"/>
    </vehicle>
    <vehicle id="51" depart="5.10">
        <route edges="-256116862#0 307437419#7 464541887#1 464541887#2 464541887#3 469432285#0 469432285#1 469432285#2 469432285#3 469432285#4 469432285#5 462334370 462765082 462344514 215181897#0 215181897#1 215181897#2 215181897#3 215181897#4 215181897#5 215181897#6 462817589#0 462817589#1 246904203 443621382#0 443621382#1 462802718 443607140 462340102 462340103#0 443609415#0 103914254#0 103914254#1 103914254#2 103914254#3 103914269#15 103914269#16"/>
    </vehicle>
    <vehicle id="52" depart="5.20">
        <route edges="256117498#0 -462813768 462813765#0 462813765#1 462813765#2 462819771#0 462819771#1 462817589#0 462817589#1 246904203 443621382#0 255385469#0 -255385469#0"/>
    </vehicle>
    <vehicle id="53" depart="5.30">
        <route edges="256118476#1 -256118476#1 -256118476#0 246895405#3 246895405#4 246895405#5 246895405#6 156742399#0 156742399#1 443606206 259544571#0 259544571#1 259544571#2 259544571#3 259544571#4 462742376#1 462742376#2 462742376#3 462742376#4 462334376 462334377#0 462951163 462340088 462340096#0 462340096#1 462340099#0 462340099#1 462340099#2 462340099#3 462340099#4 462340099#5 462340099#6 468339029 472629524 472629526#0 472629526#1 472629526#2 103914572#0 103914572#1 103914572#2 463737884#0 463737884#1 463737884#2 463737884#3 463737884#4 463737884#5 471727262 471727261#2 256116014#1 256116014#2 256116014#3"/>
    </vehicle>
    <vehicle id="54" depart="5.40">
        <route edges="-255389615 -255389619#1 -255389619#0 246895399#1 316015551#0 472263796#1 472263796#2 448000716 447981536#0 447981536#1 447981536#2 447981536#3 472631506#0 472631506#1 472623518 472624449 462813773#0 462813773#1 469429378 464122996#0 464122996#1 464122996#2 464122996#3 464122996#4 464122996#5 103914575#0 103914575#1 103914575#2 103914575#3 103914575#4 469429386#0 464541887#2 464541887#3 469432285#0 -306848042 306848064#2 -306848036#1"/>
    </vehicle>
    <vehicle id="55" depart="5.50">
        <route edges="472629533#1 472629533#2 460893411#1 460893411#2 460893411#3 460893411#4 472623521#0 472623521#1 472623521#2 247113630#1 247113630#2 247113630#3 462952189#0 462952189#1 463737884#1 463737884#2 463737884#3 463737884#4 463737884#5 463737884#6 463737884#7 463737884#8 463737884#9 463737884#10 472354324#0 472354324#1 472354324#2 464133648#0 464133648#1 103914575#1 -462340109#5 -462340109#4 -462340109#3 -462340109#2 306848056#0 306848056#1"/>
    </vehicle>
    <vehicle id="56" depart="5.60">
        <route edges="472629517#1 472623518 472624449 462813773#0 462813773#1 215184535#0 215184535#1 215184535#2 469429379#0 469429379#1 469429379#2 295443570 462334363#0 462334363#1 462334366#0 462334366#1 469429391#1 443759884 247113642#0 247113642#1"/>
    </vehicle>
    <vehicle id="57" depart="5.70">
        <route edges="255393057#1 -255393057#1 -255393057#0 -255391219#0 255391218#2 247113617#0 247113624#3 472624442#0 472624442#1 462819765 459577894#0 459577894#1 462817591 246904200 246904204 472629522 472629523#0 472629523#1 448000715#0 448000715#1 448000715#2 472263797#0 443612010 443621384#1 443621384#2 443621386#0 443621386#1 443621386#2 246895405#0 246895405#1 246895405#2 256118476#0 -256118476#0"/>
    </vehicle>
    <vehicle id="58" depart="5.80">
        <route edges="-306690758#1 -399365371 -256117484#0 462742375#3 462742375#4 462742375#5 469429386#0 469429386#1 469429386#2 469429390 469432283#0 246895352#0 246895352#1 246895352#2 256117457#4 256117457#5 -256117457#5"/>
    </vehicle>
    <vehicle id="59" depart="5.90">
        <route edges="-256117501#0 -462334369#0 -256117500 469429391#0 469429391#1 443759884 443759885#0 443759885#1 443759885#2 443759885#3 443759867#0 246895408#0 246895408#1 443621390 443551615 443759866#0 443759866#1 443759866#2 246895374 443621387#0 443621387#1"/>
    </vehicle>
    <vehicle id="60" depart="6.00">
        <route edges="306482837#3 316015553#0 316015553#1 316015555#1 -306482836#0 472629526#2 103914572#0 103914572#1 103914572#2 463737884#0 463737884#1 463737884#2 463737884#3 463737884#4 463737884#5 463737884#6 463737884#7 463737884#8 463737884#9 463737884#10 472354324#0 472354324#1 472354324#2 464541889 464541878"/>
    </vehicle>
    <vehicle id="61" depart="6.10">
        <route edges="246895352#1 -246895352#1 462742372#2 462742372#3 462742372#4 469429395#0 469429395#1 469429395#2 469429395#3 469429396#0 469429396#1 469429396#2 469429396#3 447987020 447987018 -469206988#4 -469206988#3 -469206988#2 -469206988#1 -469206988#0 -469206991 469206991"/>
    </vehicle>
    <vehicle id="62" depart="6.20">
        <route edges="307100069#0 307100069#1 307100069#2 307100069#3 255393067#1 255393081#2 255393081#3 255393081#4 247113620#3 247113620#4 247113620#5 247113620#6 472631496#0 472631496#1 463737884#8 463737884#9 463737884#10 472354324#0 472354324#1 472354324#2 464133648#0 464133648#1 464133648#2 464133648#3 464133648#4 464133648#5 58801373#1 58801373#2 58801373#3 469432285#4 462742373#2 462742375#0"/>
    </vehicle>
    <vehicle id="63" depart="6.30">
        <route edges="103914260#0 443621386#1 103914258#1 103914263#1 103914263#2 443606203#0 443606203#1 443606203#2 443759879#0 443612011 462334371#2 447990271#0 447990271#1 447990271#2 472629519 246904209 58801375#0 58801375#1 459584178 462819765 459577892#0 459577892#1 462813770 103914572#1 103914572#2 463737884#0 463737884#1 463737884#2 463737884#3 463737884#4 463737884#5 463737884#6 463737884#7 463737884#8 463737884#9 -306982148#3 -306982148#2 255394129#0 -255394129#0"/>
    </vehicle>
    <vehicle id="64" depart="6.40">
        <route edges="-255366916#1 -255366916#0 103914577#3 443621379 58801396#0 472263800#1 443759884 443759885#0 443759885#1 443759885#2 443759885#3 443759867#0 246895408#0 246895408#1 443621390 443551615 443759866#0 443759866#1 246895405#1 -256118455#1 -256118455#0"/>
    </vehicle>
    <vehicle id="65" depart="6.50">
        <route edges="468753279#4 468753280#0 467941515#0 467772312#5 467772312#6 467772311#0"/>
    </vehicle>
    <vehicle id="66" depart="6.60">
        <route edges="246895358 458883146 459577888#0 459577888#1 459577888#2 472623517 459577889 472263796#0 472263796#1 472263796#2 448000716 103914261#0 103914261#1 462949520#0 462949520#1 462949520#2 469432294 58801384 462949522#0 462949522#1 455467467 472263800#0 472263800#1 443759884 247113642#0 247113642#1 58801402 210970615#0 210970615#1 443541721#0 443541721#1 443541721#2 42310047 455431569#0 455431569#1 443537614 443537620 443537622"/>
    </vehicle>
    <vehicle id="67" depart="6.70">
        <route edges="-308238866#1 -308238866#0 256116016#4 256116016#5 256116016#6 -256116015#1 -256116015#0 463737884#5 463737884#6 463737884#7 472631496#2 472355266#2 472355266#3 472355266#4 247113652 472623520#0 472623520#1 472623520#2 472623520#3 472629527 472623522 472624447#0 472624447#1 332694979#2 332694979#3 332694979#4 -247113627#1 -247113627#0 460893410"/>
    </vehicle>
    <vehicle id="68" depart="6.80">
        <route edges="472264204#0 472264204#1 472264204#2 306265837#2 306265837#3 306265837#4 306265837#5 447987027 464541886#0 464541886#1 464541888#0 464541888#1 464133648#0 464133648#1 103914575#1 -462340109#5 -462340109#4 462340109#4"/>
    </vehicle>
    <vehicle id="69" depart="6.90">
        <route edges="469207061 -469207061 -469207062 464541883#1 464541883#2 464541883#3 469206991 469206988#0 469206988#1 469206988#2 469206988#3 469206988#4 447987019 300655406 306265837#0 306265837#1 306265837#2 306265837#3 306265837#4 306265837#5 447987027 464541886#0 464541886#1 464541888#0 464541888#1 464133648#0 464133648#1 464133648#2 464133648#3 464133648#4 464133648#5 464133648#6 464133648#7 463737882 472355268#0 472355268#1 472355268#2 469432289#0 469432289#1 469432289#2 462813765#1 462813765#2 462819771#0 462819771#1 462817589#0 462817589#1 246904203 443621382#0 443621382#1 462802718 472264205#0 472264205#1 462742377#0 462742377#1 462742377#2 462742377#3 462742378 462744226#0 -103914269#6 -103914269#5 -103914269#4 -103914269#3"/>
    </vehicle>
    <vehicle id="70" depart="7.00">
        <route edges="460893411#5 332694978#0 462344516#2 472629529#0 472629529#1 472629529#2 447990272 448000710#0 448000710#1 448000710#2 448000711 464541886#0 464541886#1 464541887#0 464541887#1 464541887#2 469432284#1 462742375#5 469429383#0 469429383#1"/>
    </vehicle>
    <vehicle id="71" depart="7.10">