<?xml version="1.0"?>
<trips>
    <trip id="0" depart="0.0" from="-514#0" to="684#1" />
    <trip id="1" depart="0.05" from="-1529#1" to="1546#0" />
    <trip id="2" depart="0.1" from="-99#1" to="-1003#1" />
    <trip id="3" depart="0.15" from="-151#3" to="-843" />
    <trip id="4" depart="0.2" from="-164#0" to="-1046#1" />
    <trip id="5" depart="0.25" from="1108" to="619#6" />
    <trip id="6" depart="0.3" from="1944#0" to="-167#16" />
    <trip id="7" depart="0.35" from="503" to="69#1" />
    <trip id="8" depart="0.4" from="-1530#0" to="-99#0" />
    <trip id="9" depart="0.45" from="-112" to="1971#0" />
    <trip id="10" depart="0.5" from="281#0" to="-989#10" />
    <trip id="11" depart="0.55" from="-535" to="167#12" />
    <trip id="12" depart="0.6" from="-949#3" to="22#8" />
    <trip id="13" depart="0.65" from="919#3" to="-223#3" />
    <trip id="14" depart="0.7" from="-1523#0" to="-686#0" />
    <trip id="15" depart="0.75" from="1119#0" to="425" />
    <trip id="16" depart="0.8" from="-203#2" to="428" />
    <trip id="17" depart="0.85" from="1834" to="1873" />
    <trip id="18" depart="0.9" from="-886#1" to="884#1" />
    <trip id="19" depart="0.95" from="554" to="1703#0" />
    <trip id="20" depart="1.0" from="1845" to="2005" />
    <trip id="21" depart="1.05" from="-129" to="1560" />
    <trip id="22" depart="1.1" from="-1095#1" to="816" />
    <trip id="23" depart="1.15" from="-645#2" to="1875#3" />
    <trip id="24" depart="1.2" from="1024#0" to="1154#4" />
    <trip id="25" depart="1.25" from="878#2" to="-9#0" />
    <trip id="26" depart="1.3" from="1975" to="-1076#1" />
    <trip id="27" depart="1.35" from="1869#1" to="-1169#1" />
    <trip id="28" depart="1.4" from="952#4" to="1893#3" />
    <trip id="29" depart="1.45" from="152#2" to="-1003#2" />
    <trip id="30" depart="1.5" from="343" to="1948" />
    <trip id="31" depart="1.55" from="-1174#0" to="1059#1" />
    <trip id="32" depart="1.6" from="-715#0" to="1046#3" />
    <trip id="33" depart="1.65" from="27#16" to="-262" />
    <trip id="34" depart="1.7" from="-156#3" to="1136#1" />
    <trip id="35" depart="1.75" from="1701" to="-9#1" />
    <trip id="36" depart="1.8" from="327" to="882" />
    <trip id="37" depart="1.85" from="1003#3" to="965" />
    <trip id="38" depart="1.9" from="1024#3" to="17#1" />
    <trip id="39" depart="1.95" from="-1523#0" to="-167#9" />
    <trip id="40" depart="2.0" from="1699#1" to="1083#1" />
    <trip id="41" depart="2.05" from="1913#4" to="2014#3" />
    <trip id="42" depart="2.1" from="165" to="1169#0" />
    <trip id="43" depart="2.15" from="-904#6" to="7#1" />
    <trip id="44" depart="2.2" from="-119#2" to="-1523#1" />
    <trip id="45" depart="2.25" from="238" to="-989#6" />
    <trip id="46" depart="2.3" from="-259" to="1964#2" />
    <trip id="47" depart="2.35" from="81#1" to="83#8" />
    <trip id="48" depart="2.4" from="996#2" to="554" />
    <trip id="49" depart="2.45" from="-530" to="-163#2" />
    <trip id="50" depart="2.5" from="-1014#1" to="379" />
    <trip id="51" depart="2.55" from="-167#1" to="-1094#0" />
    <trip id="52" depart="2.6" from="1800#0" to="534#1" />
    <trip id="53" depart="2.65" from="-903#3" to="961" />
    <trip id="54" depart="2.7" from="22#3" to="1062#0" />
    <trip id="55" depart="2.75" from="222" to="-258#2" />
    <trip id="56" depart="2.8" from="435#0" to="-1088" />
    <trip id="57" depart="2.85" from="83#10" to="-989#10" />
    <trip id="58" depart="2.9" from="-338#0" to="1152#0" />
    <trip id="59" depart="2.95" from="1027" to="553#0" />
    <trip id="60" depart="3.0" from="938#1" to="1928#2" />
    <trip id="61" depart="3.05" from="1680" to="-127" />
    <trip id="62" depart="3.1" from="2017" to="61" />
    <trip id="63" depart="3.15" from="-83#2" to="989#6" />
    <trip id="64" depart="3.2" from="-776#0" to="1999#6" />
    <trip id="65" depart="3.25" from="904#3" to="306#0" />
    <trip id="66" depart="3.3" from="1936#1" to="-27#16" />
    <trip id="67" depart="3.35" from="-1718" to="946#5" />
    <trip id="68" depart="3.4" from="122" to="-1107#0" />
    <trip id="69" depart="3.45" from="2007#2" to="1902#4" />
    <trip id="70" depart="3.5" from="695" to="-927#1" />
    <trip id="71" depart="3.55" from="1961#1" to="-199#0" />
    <trip id="72" depart="3.6" from="-426#0" to="-1524#0" />
    <trip id="73" depart="3.65" from="-101#1" to="1078" />
    <trip id="74" depart="3.7" from="2019#1" to="-167#8" />
    <trip id="75" depart="3.75" from="282#2" to="-2009" />
    <trip id="76" depart="3.8" from="-638" to="324#1" />
    <trip id="77" depart="3.85" from="1533#1" to="-989#3" />
    <trip id="78" depart="3.9" from="25#0" to="1875#4" />
    <trip id="79" depart="3.95" from="-193#2" to="903#2" />
    <trip id="80" depart="4.0" from="184#0" to="-197#1" />
    <trip id="81" depart="4.05" from="972#4" to="-1993" />
    <trip id="82" depart="4.1" from="167#2" to="1473#2" />
    <trip id="83" depart="4.15" from="253#1" to="-1642" />
    <trip id="84" depart="4.2" from="-933" to="1699#0" />
    <trip id="85" depart="4.25" from="-841#7" to="-1527#2" />
    <trip id="86" depart="4.3" from="937#0" to="355" />
    <trip id="87" depart="4.35" from="2003#1" to="1174#3" />
    <trip id="88" depart="4.4" from="459#4" to="1042#7" />
    <trip id="89" depart="4.45" from="139#0" to="1902#2" />
    <trip id="90" depart="4.5" from="-121" to="1924" />
    <trip id="91" depart="4.55" from="1004#2" to="1938#2" />
    <trip id="92" depart="4.6" from="1546#2" to="1141" />
    <trip id="93" depart="4.65" from="-167#8" to="1954#1" />
    <trip id="94" depart="4.7" from="1916#2" to="17#1" />
    <trip id="95" depart="4.75" from="-841#3" to="1800#1" />
    <trip id="96" depart="4.8" from="1527#4" to="1929#2" />
    <trip id="97" depart="4.85" from="946#8" to="-9#4" />
    <trip id="98" depart="4.9" from="-1121" to="1902#3" />
    <trip id="99" depart="4.95" from="1030#2" to="263" />
    <trip id="100" depart="5.0" from="-1003#2" to="-1537#2" />
    <trip id="101" depart="5.05" from="2036#2" to="2046#0" />
    <trip id="102" depart="5.1" from="1041#1" to="-43#1" />
    <trip id="103" depart="5.15" from="-949#0" to="-696" />
    <trip id="104" depart="5.2" from="215#1" to="1132#3" />
    <trip id="105" depart="5.25" from="111" to="534#5" />
    <trip id="106" depart="5.3" from="1541" to="-152#0" />
    <trip id="107" depart="5.35" from="-405" to="1968" />
    <trip id="108" depart="5.4" from="-1127" to="-684#1" />
    <trip id="109" depart="5.45" from="203#1" to="-1081" />
    <trip id="110" depart="5.5" from="-1530#2" to="1808#2" />
    <trip id="111" depart="5.55" from="-341#1" to="-1524#1" />
    <trip id="112" depart="5.6" from="-898#1" to="1506#1" />
    <trip id="113" depart="5.65" from="996#4" to="2031#0" />
    <trip id="114" depart="5.7" from="316" to="-1536" />
    <trip id="115" depart="5.75" from="286#1" to="22#6" />
    <trip id="116" depart="5.8" from="952#0" to="-1030#2" />
    <trip id="117" depart="5.85" from="1165#0" to="1527#2" />
    <trip id="118" depart="5.9" from="2001#4" to="333#2" />
    <trip id="119" depart="5.95" from="-962#0" to="1811#0" />
    <trip id="120" depart="6.0" from="-81#1" to="1939#1" />
    <trip id="121" depart="6.05" from="680#1" to="841#7" />
    <trip id="122" depart="6.1" from="102#1" to="1481" />
    <trip id="123" depart="6.15" from="-1533#0" to="715#1" />
    <trip id="124" depart="6.2" from="-989#0" to="27#12" />
    <trip id="125" depart="6.25" from="1823#1" to="1#0" />
    <trip id="126" depart="6.3" from="199#0" to="228" />
    <trip id="127" depart="6.35" from="-920#0" to="-719#1" />
    <trip id="128" depart="6.4" from="-1110#2" to="1137#1" />
    <trip id="129" depart="6.45" from="2025" to="1471" />
    <trip id="130" depart="6.5" from="215#4" to="1528#0" />
    <trip id="131" depart="6.55" from="-167#20" to="262" />
    <trip id="132" depart="6.6" from="9#4" to="1906" />
    <trip id="133" depart="6.65" from="1996#9" to="534#4" />
    <trip id="134" depart="6.7" from="1996#1" to="487#2" />
    <trip id="135" depart="6.75" from="1954#1" to="-1122" />
    <trip id="136" depart="6.8" from="298#4" to="-467#0" />
    <trip id="137" depart="6.85" from="919#4" to="1149" />
    <trip id="138" depart="6.9" from="-894#0" to="101#0" />
    <trip id="139" depart="6.95" from="-429#1" to="-2022#1" />
    <trip id="140" depart="7.0" from="937#0" to="-167#5" />
    <trip id="141" depart="7.05" from="167#4" to="193#2" />
    <trip id="142" depart="7.1" from="-514#16" to="947#2" />
    <trip id="143" depart="7.15" from="1819#1" to="-680#2" />
    <trip id="144" depart="7.2" from="-162#1" to="-553#1" />
    <trip id="145" depart="7.25" from="1931#1" to="28#1" />
    <trip id="146" depart="7.3" from="2046#10" to="1073#0" />
    <trip id="147" depart="7.35" from="932#1" to="1996#8" />
    <trip id="148" depart="7.4" from="1875#5" to="1564#0" />
    <trip id="149" depart="7.45" from="1004#2" to="1123" />
    <trip id="150" depart="7.5" from="167#16" to="1048" />
    <trip id="151" depart="7.55" from="260#1" to="-883" />
    <trip id="152" depart="7.6" from="-1857#0" to="-226" />
    <trip id="153" depart="7.65" from="-887" to="-1252" />
    <trip id="154" depart="7.7" from="-1505#0" to="-351#0" />
    <trip id="155" depart="7.75" from="-184#1" to="328" />
    <trip id="156" depart="7.8" from="1702" to="766#1" />
    <trip id="157" depart="7.85" from="-956#0" to="-194#1" />
    <trip id="158" depart="7.9" from="1929#2" to="-102#1" />
    <trip id="159" depart="7.95" from="-946#5" to="1891" />
    <trip id="160" depart="8.0" from="167#2" to="2038" />
    <trip id="161" depart="8.05" from="-886#1" to="-215#2" />
    <trip id="162" depart="8.1" from="-1523#1" to="2004" />
    <trip id="163" depart="8.15" from="1643" to="-1522#0" />
    <trip id="164" depart="8.2" from="127" to="40" />
    <trip id="165" depart="8.25" from="1916#2" to="1713" />
    <trip id="166" depart="8.3" from="90#2" to="1676#2" />
    <trip id="167" depart="8.35" from="1998#4" to="1943#1" />
    <trip id="168" depart="8.4" from="-228" to="991#1" />
    <trip id="169" depart="8.45" from="-223#0" to="1963#0" />
    <trip id="170" depart="8.5" from="1508" to="-518#1" />
    <trip id="171" depart="8.55" from="101#3" to="514#16" />
    <trip id="172" depart="8.6" from="-1527#3" to="1836" />
    <trip id="173" depart="8.65" from="42" to="1844#0" />
    <trip id="174" depart="8.7" from="1010#0" to="-1008#0" />
    <trip id="175" depart="8.75" from="-1521" to="-1520" />
    <trip id="176" depart="8.8" from="1052" to="1125#1" />
    <trip id="177" depart="8.85" from="1832#0" to="501#0" />
    <trip id="178" depart="8.9" from="1016" to="-1623#0" />
    <trip id="179" depart="8.95" from="1004#2" to="-109" />
    <trip id="180" depart="9.0" from="1083#0" to="-765#3" />
    <trip id="181" depart="9.05" from="-514#7" to="-1104#0" />
    <trip id="182" depart="9.1" from="113#1" to="97#1" />
    <trip id="183" depart="9.15" from="1061#1" to="282#2" />
    <trip id="184" depart="9.2" from="-167#16" to="1005#1" />
    <trip id="185" depart="9.25" from="1945#4" to="-346#1" />
    <trip id="186" depart="9.3" from="487#5" to="2012#2" />
    <trip id="187" depart="9.35" from="1961#1" to="27#0" />
    <trip id="188" depart="9.4" from="1673" to="2033#4" />
    <trip id="189" depart="9.45" from="151#2" to="645#2" />
    <trip id="190" depart="9.5" from="83#8" to="1499" />
    <trip id="191" depart="9.55" from="-27#16" to="-938#0" />
    <trip id="192" depart="9.6" from="2042#0" to="904#1" />
    <trip id="193" depart="9.65" from="-432#2" to="1807#1" />
    <trip id="194" depart="9.7" from="-260#0" to="-215#1" />
    <trip id="195" depart="9.75" from="-904#6" to="2023" />
    <trip id="196" depart="9.8" from="1529#2" to="1942" />
    <trip id="197" depart="9.85" from="1385#1" to="909#1" />
    <trip id="198" depart="9.9" from="616#3" to="1172" />
    <trip id="199" depart="9.95" from="-814#0" to="1931#2" />
    <trip id="200" depart="10.0" from="-1785#1" to="931#3" />
    <trip id="201" depart="10.05" from="1839" to="1078" />
    <trip id="202" depart="10.1" from="-991#0" to="765#4" />
    <trip id="203" depart="10.15" from="885#0" to="151#2" />
    <trip id="204" depart="10.2" from="-1537#1" to="-27#12" />
    <trip id="205" depart="10.25" from="320#1" to="-509#0" />
    <trip id="206" depart="10.3" from="680#0" to="924" />
    <trip id="207" depart="10.35" from="1153" to="1013" />
    <trip id="208" depart="10.4" from="-83#9" to="237#1" />
    <trip id="209" depart="10.45" from="1677" to="119#1" />
    <trip id="210" depart="10.5" from="716#0" to="1837#2" />
    <trip id="211" depart="10.55" from="-1900#7" to="1140#1" />
    <trip id="212" depart="10.6" from="-309#1" to="-1918#2" />
    <trip id="213" depart="10.65" from="1943#4" to="1057#0" />
    <trip id="214" depart="10.7" from="-514#1" to="1540" />
    <trip id="215" depart="10.75" from="309#4" to="2046#6" />
    <trip id="216" depart="10.8" from="894#1" to="2044#1" />
    <trip id="217" depart="10.85" from="684#2" to="1938#2" />
    <trip id="218" depart="10.9" from="1679" to="193#0" />
    <trip id="219" depart="10.95" from="2029" to="1495#1" />
    <trip id="220" depart="11.0" from="105" to="-947#6" />
    <trip id="221" depart="11.05" from="-1097" to="-518#0" />
    <trip id="222" depart="11.1" from="1837#1" to="1871#0" />
    <trip id="223" depart="11.15" from="989#5" to="88#1" />
    <trip id="224" depart="11.2" from="196" to="974" />
    <trip id="225" depart="11.25" from="9#1" to="1823#1" />
    <trip id="226" depart="11.3" from="993#2" to="85" />
    <trip id="227" depart="11.35" from="44" to="1965#1" />
    <trip id="228" depart="11.4" from="1520" to="949#0" />
    <trip id="229" depart="11.45" from="534#0" to="2036#3" />
    <trip id="230" depart="11.5" from="-95#0" to="-258#4" />
    <trip id="231" depart="11.55" from="904#4" to="1996#9" />
    <trip id="232" depart="11.6" from="1838#1" to="914#2" />
    <trip id="233" depart="11.65" from="1469#0" to="1127" />
    <trip id="234" depart="11.7" from="232#1" to="-946#5" />
    <trip id="235" depart="11.75" from="-1117" to="-101#3" />
    <trip id="236" depart="11.8" from="683#1" to="124#0" />
    <trip id="237" depart="11.85" from="2038" to="1709" />
    <trip id="238" depart="11.9" from="-101#4" to="184#1" />
    <trip id="239" depart="11.95" from="167#22" to="1703#0" />
    <trip id="240" depart="12.0" from="83#5" to="333#1" />
    <trip id="241" depart="12.05" from="1563" to="1025" />
    <trip id="242" depart="12.1" from="1929#6" to="619#5" />
    <trip id="243" depart="12.15" from="-716#1" to="-164#2" />
    <trip id="244" depart="12.2" from="106#1" to="1158#2" />
    <trip id="245" depart="12.25" from="947#2" to="-193#1" />
    <trip id="246" depart="12.3" from="-680#1" to="1155#1" />
    <trip id="247" depart="12.35" from="1945#2" to="1811#1" />
    <trip id="248" depart="12.4" from="-929#0" to="-1022" />
    <trip id="249" depart="12.45" from="1671" to="1552" />
</trips>
