<?xml version="1.0"?>
<trips>
    <trip id="0" depart="0.0" from="-397406297#0" to="-255363610#0" />
    <trip id="1" depart="0.05" from="-397406294#0" to="-455431572#1" />
    <trip id="2" depart="0.1" from="306265837#3" to="447990270#2" />
    <trip id="3" depart="0.15" from="-255362783#0" to="-247113634#1" />
    <trip id="4" depart="0.2" from="464541887#1" to="462742374#2" />
    <trip id="5" depart="0.25" from="462340099#6" to="472629534" />
    <trip id="6" depart="0.3" from="-306537046#1" to="-211118656#0" />
    <trip id="7" depart="0.35" from="397406266#0" to="306482834" />
    <trip id="8" depart="0.4" from="-211118657#1" to="-255362790#1" />
    <trip id="9" depart="0.45" from="462817589#1" to="306537042#0" />
    <trip id="10" depart="0.5" from="255388795#1" to="-306628761#0" />
    <trip id="11" depart="0.55" from="255361856" to="255393054#1" />
    <trip id="12" depart="0.6" from="467772310" to="467941515#0" />
    <trip id="13" depart="0.65" from="462742374#0" to="255391217#0" />
    <trip id="14" depart="0.7" from="58801373#4" to="-255366920" />
    <trip id="15" depart="0.75" from="469207032" to="256117490#1" />
    <trip id="16" depart="0.8" from="469206988#2" to="-255363617" />
    <trip id="17" depart="0.85" from="255385470#1" to="-255393065#14" />
    <trip id="18" depart="0.9" from="255362790#3" to="448000714" />
    <trip id="19" depart="0.95" from="397406281" to="397406269#2" />
    <trip id="20" depart="1.0" from="-247113642#0" to="-255393067#0" />
    <trip id="21" depart="1.05" from="443759867#2" to="-255391214" />
    <trip id="22" depart="1.1" from="469206991" to="462742373#1" />
    <trip id="23" depart="1.15" from="462744226#3" to="397406282#0" />
    <trip id="24" depart="1.2" from="472263797#0" to="463737375" />
    <trip id="25" depart="1.25" from="-306848035#2" to="255362783#1" />
    <trip id="26" depart="1.3" from="307100069#3" to="256118475" />
    <trip id="27" depart="1.35" from="-399365370" to="255388798" />
    <trip id="28" depart="1.4" from="-397406282#1" to="-255352031#0" />
    <trip id="29" depart="1.45" from="462340114" to="-246904217#3" />
    <trip id="30" depart="1.5" from="255388574#0" to="-472679926#4" />
    <trip id="31" depart="1.55" from="472631503#2" to="306485567" />
    <trip id="32" depart="1.6" from="211118658#0" to="103914571#4" />
    <trip id="33" depart="1.65" from="462742376#4" to="462813766" />
    <trip id="34" depart="1.7" from="462949521#1" to="469207025" />
    <trip id="35" depart="1.75" from="332694978#3" to="-397406275" />
    <trip id="36" depart="1.8" from="306482837#2" to="-247113643#1" />
    <trip id="37" depart="1.85" from="469432290#0" to="472263795#1" />
    <trip id="38" depart="1.9" from="471727266" to="-255393882#1" />
    <trip id="39" depart="1.95" from="469429395#0" to="462742376#1" />
    <trip id="40" depart="2.0" from="447981536#3" to="-256116016#3" />
    <trip id="41" depart="2.05" from="-256117457#3" to="-256116847#3" />
    <trip id="42" depart="2.1" from="464541885" to="103914261#0" />
    <trip id="43" depart="2.15" from="215181897#0" to="49181439" />
    <trip id="44" depart="2.2" from="-307437419#7" to="-306485567" />
    <trip id="45" depart="2.25" from="294686230#0" to="-306848036#1" />
    <trip id="46" depart="2.3" from="255388794#2" to="255362791#1" />
    <trip id="47" depart="2.35" from="307100069#2" to="255361860#1" />
    <trip id="48" depart="2.4" from="462819780" to="255394125#2" />
    <trip id="49" depart="2.45" from="-306848063#2" to="455431569#0" />
    <trip id="50" depart="2.5" from="-49397099#1" to="-49397099#0" />
    <trip id="51" depart="2.55" from="464541883#3" to="469207011#0" />
    <trip id="52" depart="2.6" from="-255393065#5" to="255386813#0" />
    <trip id="53" depart="2.65" from="464134309#0" to="256117490#0" />
    <trip id="54" depart="2.7" from="103914576" to="-255362784" />
    <trip id="55" depart="2.75" from="467772312#3" to="256116014#10" />
    <trip id="56" depart="2.8" from="-255352030#0" to="-103914269#12" />
    <trip id="57" depart="2.85" from="469429383#0" to="462817590#1" />
    <trip id="58" depart="2.9" from="-306537046#2" to="-306848033#3" />
    <trip id="59" depart="2.95" from="-312537881" to="255351825#2" />
    <trip id="60" depart="3.0" from="-316015555#1" to="-397406266#2" />
    <trip id="61" depart="3.05" from="462952186#1" to="-307437419#2" />
    <trip id="62" depart="3.1" from="-255393898#1" to="471727261#2" />
    <trip id="63" depart="3.15" from="-246904198#0" to="-255363620#2" />
    <trip id="64" depart="3.2" from="-306482834" to="467773236#0" />
    <trip id="65" depart="3.25" from="255391218#2" to="256116847#2" />
    <trip id="66" depart="3.3" from="-263335837#0" to="247113635#0" />
    <trip id="67" depart="3.35" from="472679926#9" to="255393055#1" />
    <trip id="68" depart="3.4" from="-462813768" to="-307437419#7" />
    <trip id="69" depart="3.45" from="472629527" to="-246904217#6" />
    <trip id="70" depart="3.5" from="462819771#1" to="255385471" />
    <trip id="71" depart="3.55" from="-103914269#18" to="256116847#2" />
    <trip id="72" depart="3.6" from="211118658#0" to="255366916#1" />
    <trip id="73" depart="3.65" from="472629526#2" to="306571769#0" />
    <trip id="74" depart="3.7" from="-103914254#7" to="462802716#3" />
    <trip id="75" depart="3.75" from="306848035#1" to="464541876#1" />
    <trip id="76" depart="3.8" from="-256117488" to="-103914269#3" />
    <trip id="77" depart="3.85" from="472624442#1" to="472631496#2" />
    <trip id="78" depart="3.9" from="255388568" to="459577892#1" />
    <trip id="79" depart="3.95" from="-255393054#2" to="263335835#0" />
    <trip id="80" depart="4.0" from="255393907#0" to="-255389619#1" />
    <trip id="81" depart="4.05" from="-397406269#1" to="256116863" />
    <trip id="82" depart="4.1" from="-211118654#2" to="-468335364#2" />
    <trip id="83" depart="4.15" from="103914248#0" to="255391221#2" />
    <trip id="84" depart="4.2" from="-256116018#2" to="256117489#0" />
    <trip id="85" depart="4.25" from="103914269#14" to="215184742#11" />
    <trip id="86" depart="4.3" from="256116014#4" to="-256116025#2" />
    <trip id="87" depart="4.35" from="118337848#3" to="468753279#1" />
    <trip id="88" depart="4.4" from="256117489#0" to="467773241" />
    <trip id="89" depart="4.45" from="-263335838#1" to="462340109#2" />
    <trip id="90" depart="4.5" from="-397406298" to="469207027#1" />
    <trip id="91" depart="4.55" from="443606203#2" to="462819765" />
    <trip id="92" depart="4.6" from="-255351826" to="469432285#0" />
    <trip id="93" depart="4.65" from="-255393898#5" to="255361859#4" />
    <trip id="94" depart="4.7" from="447987025" to="462344515#2" />
    <trip id="95" depart="4.75" from="472624445#0" to="472263791" />
    <trip id="96" depart="4.8" from="263632295#0" to="-256118454#2" />
    <trip id="97" depart="4.85" from="255363612" to="256117493#1" />
    <trip id="98" depart="4.9" from="255393063#3" to="-256116862#4" />
    <trip id="99" depart="4.95" from="443759866#1" to="-397406269#2" />
    <trip id="100" depart="5.0" from="306537043#1" to="263335834" />
    <trip id="101" depart="5.05" from="472629525#0" to="246904217#4" />
    <trip id="102" depart="5.1" from="256117457#0" to="462340105#8" />
    <trip id="103" depart="5.15" from="-255393055#1" to="-472679926#5" />
    <trip id="104" depart="5.2" from="255393054#1" to="472263801#8" />
    <trip id="105" depart="5.25" from="302255826" to="-397406266#2" />
    <trip id="106" depart="5.3" from="256116016#3" to="-467772311#1" />
    <trip id="107" depart="5.35" from="463737884#8" to="462813765#2" />
    <trip id="108" depart="5.4" from="443619949" to="255391219#1" />
    <trip id="109" depart="5.45" from="470752850" to="-255363604#0" />
    <trip id="110" depart="5.5" from="447981536#2" to="-247113617#1" />
    <trip id="111" depart="5.55" from="247113635#1" to="462340105#4" />
    <trip id="112" depart="5.6" from="-263632306" to="469432289#1" />
    <trip id="113" depart="5.65" from="455467466" to="208567773#0" />
    <trip id="114" depart="5.7" from="468335379#0" to="316015554#0" />
    <trip id="115" depart="5.75" from="307249699" to="443537603" />
    <trip id="116" depart="5.8" from="263333981" to="-256118455#0" />
    <trip id="117" depart="5.85" from="-255394125#1" to="-307102522#0" />
    <trip id="118" depart="5.9" from="-256116862#5" to="255393065#10" />
    <trip id="119" depart="5.95" from="-255363618" to="443560636" />
    <trip id="120" depart="6.0" from="462819774#1" to="443759866#2" />
    <trip id="121" depart="6.05" from="-256116862#1" to="472631496#0" />
    <trip id="122" depart="6.1" from="467773236#2" to="-103914255" />
    <trip id="123" depart="6.15" from="472263800#0" to="-247113617#1" />
    <trip id="124" depart="6.2" from="-256117490#1" to="-469207026#0" />
    <trip id="125" depart="6.25" from="464541887#2" to="462334367#1" />
    <trip id="126" depart="6.3" from="-256117488" to="373356854" />
    <trip id="127" depart="6.35" from="256116853" to="306628765#0" />
    <trip id="128" depart="6.4" from="-255391223" to="208567773#1" />
    <trip id="129" depart="6.45" from="-247113635#2" to="247113638#0" />
    <trip id="130" depart="6.5" from="255393894" to="263632295#1" />
    <trip id="131" depart="6.55" from="306537042#0" to="462340109#5" />
    <trip id="132" depart="6.6" from="58801373#1" to="472264206" />
    <trip id="133" depart="6.65" from="-397406267#0" to="-255362774#1" />
    <trip id="134" depart="6.7" from="-118425139#0" to="306848058#2" />
    <trip id="135" depart="6.75" from="472624455#1" to="443759883#3" />
    <trip id="136" depart="6.8" from="397406267#0" to="472624455#2" />
    <trip id="137" depart="6.85" from="215181897#1" to="462340109#6" />
    <trip id="138" depart="6.9" from="-469206997" to="-255389619#0" />
    <trip id="139" depart="6.95" from="256117460" to="263333980" />
    <trip id="140" depart="7.0" from="469432289#3" to="306537046#2" />
    <trip id="141" depart="7.05" from="472263797#0" to="-255393896#2" />
    <trip id="142" depart="7.1" from="255361859#1" to="469429394#1" />
    <trip id="143" depart="7.15" from="-446750807#1" to="-469206994" />
    <trip id="144" depart="7.2" from="256117457#0" to="397406273#0" />
    <trip id="145" depart="7.25" from="255393895#2" to="256118459#0" />
    <trip id="146" depart="7.3" from="224700950" to="308238866#2" />
    <trip id="147" depart="7.35" from="-469432281" to="-472679926#8" />
    <trip id="148" depart="7.4" from="397406269#5" to="471727265" />
    <trip id="149" depart="7.45" from="-306537043#0" to="103914269#2" />
    <trip id="150" depart="7.5" from="255386819#0" to="462802718" />
    <trip id="151" depart="7.55" from="472631498#2" to="469429380#1" />
    <trip id="152" depart="7.6" from="118425140#0" to="397406301" />
    <trip id="153" depart="7.65" from="-462340110#2" to="304660583" />
    <trip id="154" depart="7.7" from="-472679926#7" to="306485567" />
    <trip id="155" depart="7.75" from="-256116862#0" to="255391221#0" />
    <trip id="156" depart="7.8" from="472263799" to="307246976#2" />
    <trip id="157" depart="7.85" from="467773235" to="472263801#7" />
    <trip id="158" depart="7.9" from="255393064" to="256118476#0" />
    <trip id="159" depart="7.95" from="-469207063#2" to="255363610#1" />
    <trip id="160" depart="8.0" from="118337845#1" to="469432282" />
    <trip id="161" depart="8.05" from="472624455#1" to="462340100" />
    <trip id="162" depart="8.1" from="-469207081" to="469432289#2" />
    <trip id="163" depart="8.15" from="215184535#1" to="443621384#2" />
    <trip id="164" depart="8.2" from="247113617#0" to="397406293#2" />
    <trip id="165" depart="8.25" from="-215184742#2" to="-255393898#6" />
    <trip id="166" depart="8.3" from="472355266#2" to="469206994" />
    <trip id="167" depart="8.35" from="306848064#1" to="58801396#0" />
    <trip id="168" depart="8.4" from="-247113617#0" to="472355266#0" />
    <trip id="169" depart="8.45" from="-256116014#0" to="255391215#0" />
    <trip id="170" depart="8.5" from="443759885#3" to="469207061" />
    <trip id="171" depart="8.55" from="118425141#1" to="467939442#1" />
    <trip id="172" depart="8.6" from="443537620" to="224702337#0" />
    <trip id="173" depart="8.65" from="472624445#1" to="397406269#5" />
    <trip id="174" depart="8.7" from="464541884#0" to="-255391219#3" />
    <trip id="175" depart="8.75" from="462742375#5" to="-256116852#0" />
    <trip id="176" depart="8.8" from="256116016#6" to="-255394127#1" />
    <trip id="177" depart="8.85" from="306628765#0" to="443606208" />
    <trip id="178" depart="8.9" from="-255393054#2" to="-256117485" />
    <trip id="179" depart="8.95" from="472263799" to="469207004#0" />
    <trip id="180" depart="9.0" from="-255393065#18" to="208569799#5" />
    <trip id="181" depart="9.05" from="255361860#2" to="-306537046#0" />
    <trip id="182" depart="9.1" from="397406265" to="397406299" />
    <trip id="183" depart="9.15" from="472629517#0" to="263632296" />
    <trip id="184" depart="9.2" from="-462340110#1" to="255393065#12" />
    <trip id="185" depart="9.25" from="-397406258#5" to="-247113642#0" />
    <trip id="186" depart="9.3" from="-307102524" to="397406276" />
    <trip id="187" depart="9.35" from="307437419#7" to="256118476#3" />
    <trip id="188" depart="9.4" from="469207033#3" to="247113624#0" />
    <trip id="189" depart="9.45" from="469429379#0" to="-255391218#0" />
    <trip id="190" depart="9.5" from="-247113635#0" to="472629529#1" />
    <trip id="191" depart="9.55" from="-472621781" to="300655406" />
    <trip id="192" depart="9.6" from="-247113643#0" to="118425405" />
    <trip id="193" depart="9.65" from="-256116854#2" to="464122996#2" />
    <trip id="194" depart="9.7" from="103914577#3" to="448000715#1" />
    <trip id="195" depart="9.75" from="462949522#1" to="263336455#0" />
    <trip id="196" depart="9.8" from="-316015551#2" to="468335374" />
    <trip id="197" depart="9.85" from="-211118655" to="464133648#4" />
    <trip id="198" depart="9.9" from="462813774#1" to="-255361860#1" />
    <trip id="199" depart="9.95" from="-255393084#1" to="208567773#1" />
    <trip id="200" depart="10.0" from="118337845#3" to="313039005" />
    <trip id="201" depart="10.05" from="397406258#1" to="397406258#4" />
    <trip id="202" depart="10.1" from="-306628761#3" to="397406301" />
    <trip id="203" depart="10.15" from="472263798" to="211118188" />
    <trip id="204" depart="10.2" from="-255394125#2" to="306482836#2" />
    <trip id="205" depart="10.25" from="263336452#0" to="255393895#0" />
    <trip id="206" depart="10.3" from="-255388795#4" to="-256116862#4" />
    <trip id="207" depart="10.35" from="-306982152#0" to="443621383" />
    <trip id="208" depart="10.4" from="-306848033#2" to="469429393#1" />
    <trip id="209" depart="10.45" from="-255362774#1" to="118424566" />
    <trip id="210" depart="10.5" from="255393065#22" to="103914254#3" />
    <trip id="211" depart="10.55" from="472631498#5" to="-397406293#2" />
    <trip id="212" depart="10.6" from="306783191#0" to="443619948" />
    <trip id="213" depart="10.65" from="397406269#0" to="103914252#9" />
    <trip id="214" depart="10.7" from="247113627#0" to="247113617#1" />
    <trip id="215" depart="10.75" from="462742376#4" to="256117490#1" />
    <trip id="216" depart="10.8" from="-255352030#0" to="118425138" />
    <trip id="217" depart="10.85" from="467941515#5" to="255363610#2" />
    <trip id="218" depart="10.9" from="-246904217#3" to="118337855#0" />
    <trip id="219" depart="10.95" from="-255393067#0" to="-255393064" />
    <trip id="220" depart="11.0" from="255393055#0" to="443532541#1" />
    <trip id="221" depart="11.05" from="469429381" to="263333982" />
    <trip id="222" depart="11.1" from="467773238#0" to="306482837#3" />
    <trip id="223" depart="11.15" from="468753286#0" to="316015555#1" />
    <trip id="224" depart="11.2" from="464541884#0" to="-306783191#0" />
    <trip id="225" depart="11.25" from="-255393053#0" to="-103914245#0" />
    <trip id="226" depart="11.3" from="-256117457#2" to="472624445#0" />
    <trip id="227" depart="11.35" from="464133648#5" to="306848036#5" />
    <trip id="228" depart="11.4" from="255388794#1" to="-255388795#3" />
    <trip id="229" depart="11.45" from="295443572#1" to="-256116862#4" />
    <trip id="230" depart="11.5" from="-256116862#3" to="-215184742#5" />
    <trip id="231" depart="11.55" from="255351825#2" to="-210970615#1" />
    <trip id="232" depart="11.6" from="-462340109#0" to="462334370" />
    <trip id="233" depart="11.65" from="446626016#2" to="-246895352#2" />
    <trip id="234" depart="11.7" from="468335376" to="472355266#3" />
    <trip id="235" depart="11.75" from="-255362783#10" to="256117490#1" />
    <trip id="236" depart="11.8" from="-255391219#3" to="-397406269#1" />
    <trip id="237" depart="11.85" from="443606205" to="462819771#1" />
    <trip id="238" depart="11.9" from="397406258#5" to="462334368" />
    <trip id="239" depart="11.95" from="464133648#7" to="472629525#1" />
    <trip id="240" depart="12.0" from="464122996#6" to="-472679926#1" />
    <trip id="241" depart="12.05" from="472263801#7" to="443532541#0" />
    <trip id="242" depart="12.1" from="308238866#0" to="467773236#1" />
    <trip id="243" depart="12.15" from="462340096#1" to="-469207027#1" />
    <trip id="244" depart="12.2" from="472629528" to="-307437419#3" />
    <trip id="245" depart="12.25" from="-255393882#1" to="463737884#9" />
    <trip id="246" depart="12.3" from="-467773236#2" to="307249693#0" />
    <trip id="247" depart="12.35" from="469207020" to="306482834" />
    <trip id="248" depart="12.4" from="-308238866#1" to="256117472" />
    <trip id="249" depart="12.45" from="255362783#7" to="462340105#3" />
</trips>
