<?xml version="1.0"?>
<!-- generated on 2017-02-22 12:48:47.900000 by $Id: randomTrips.py 18756 2015-08-31 19:16:33Z behrisch $
  options: -n input_net.net.xml -e 25 -p 0.1
-->
<trips>
    <trip id="0" depart="0.00" from="-103914254#4" to="256116845#0" />
    <trip id="1" depart="0.10" from="-255385469#0" to="467773238#1" />
    <trip id="2" depart="0.20" from="-247113638#1" to="-246904217#1" />
    <trip id="3" depart="0.30" from="443759866#1" to="-306482837#2" />
    <trip id="4" depart="0.40" from="307249693#0" to="255351825#1" />
    <trip id="5" depart="0.50" from="103914269#5" to="-456875925#1" />
    <trip id="6" depart="0.60" from="-306848064#2" to="467772312#5" />
    <trip id="7" depart="0.70" from="462813774#0" to="-255362790#1" />
    <trip id="8" depart="0.80" from="-103914269#18" to="256117482#2" />
    <trip id="9" depart="0.90" from="256116025#3" to="444443540" />
    <trip id="10" depart="1.00" from="-469207008#0" to="459577893" />
    <trip id="11" depart="1.10" from="397406277#1" to="-211118654#3" />
    <trip id="12" depart="1.20" from="462334366#0" to="247113652" />
    <trip id="13" depart="1.30" from="469432285#4" to="462952190" />
    <trip id="14" depart="1.40" from="247113627#1" to="-307100069#0" />
    <trip id="15" depart="1.50" from="-256116862#2" to="462742372#2" />
    <trip id="16" depart="1.60" from="467773235" to="-255351825#2" />
    <trip id="17" depart="1.70" from="462340109#4" to="332694978#0" />
    <trip id="18" depart="1.80" from="256118476#0" to="-255386813#1" />
    <trip id="19" depart="1.90" from="447987019" to="256118459#0" />
    <trip id="20" depart="2.00" from="-455467466" to="255393065#14" />
    <trip id="21" depart="2.10" from="-307246976#2" to="467941515#2" />
    <trip id="22" depart="2.20" from="448000715#2" to="462951163" />
    <trip id="23" depart="2.30" from="472354323" to="256116847#2" />
    <trip id="24" depart="2.40" from="-469432281" to="306482837#3" />
    <trip id="25" depart="2.50" from="469207033#0" to="256116845#2" />
    <trip id="26" depart="2.60" from="-255363625" to="469429394#2" />
    <trip id="27" depart="2.70" from="464133648#4" to="-306482837#0" />
    <trip id="28" depart="2.80" from="471727261#5" to="256116015#1" />
    <trip id="29" depart="2.90" from="256117459#1" to="-397406282#0" />
    <trip id="30" depart="3.00" from="471727266" to="462949520#0" />
    <trip id="31" depart="3.10" from="397406265" to="469206982#1" />
    <trip id="32" depart="3.20" from="-247113643#1" to="469206988#3" />
    <trip id="33" depart="3.30" from="-255391216#2" to="211118187" />
    <trip id="34" depart="3.40" from="103914576" to="462949520#0" />
    <trip id="35" depart="3.50" from="255351825#2" to="462742374#1" />
    <trip id="36" depart="3.60" from="-306848059#1" to="103914269#18" />
    <trip id="37" depart="3.70" from="-103914252#5" to="462819774#1" />
    <trip id="38" depart="3.80" from="306482836#0" to="-294686230#0" />
    <trip id="39" depart="3.90" from="-469206961" to="255391218#0" />
    <trip id="40" depart="4.00" from="447990271#2" to="472631498#6" />
    <trip id="41" depart="4.10" from="472264204#0" to="-103914571#3" />
    <trip id="42" depart="4.20" from="462813765#0" to="464541882#1" />
    <trip id="43" depart="4.30" from="247113620#0" to="-456875925#2" />
    <trip id="44" depart="4.40" from="-316015551#1" to="-397406269#5" />
    <trip id="45" depart="4.50" from="-256118476#0" to="472624445#0" />
    <trip id="46" depart="4.60" from="-306848058#0" to="397406266#0" />
    <trip id="47" depart="4.70" from="256116024" to="-255393907#0" />
    <trip id="48" depart="4.80" from="306537042#4" to="-255393065#3" />
    <trip id="49" depart="4.90" from="471727266" to="247113620#2" />
    <trip id="50" depart="5.00" from="-255362790#0" to="468335364#3" />
    <trip id="51" depart="5.10" from="-256116862#0" to="103914269#16" />
    <trip id="52" depart="5.20" from="256117498#0" to="-255385469#0" />
    <trip id="53" depart="5.30" from="256118476#1" to="256116014#3" />
    <trip id="54" depart="5.40" from="-255389615" to="-306848036#1" />
    <trip id="55" depart="5.50" from="472629533#1" to="306848056#1" />
    <trip id="56" depart="5.60" from="472629517#1" to="247113642#1" />
    <trip id="57" depart="5.70" from="255393057#1" to="-256118476#0" />
    <trip id="58" depart="5.80" from="-306690758#1" to="-256117457#5" />
    <trip id="59" depart="5.90" from="-256117501#0" to="443621387#1" />
    <trip id="60" depart="6.00" from="306482837#3" to="464541878" />
    <trip id="61" depart="6.10" from="246895352#1" to="469206991" />
    <trip id="62" depart="6.20" from="307100069#0" to="462742375#0" />
    <trip id="63" depart="6.30" from="103914260#0" to="-255394129#0" />
    <trip id="64" depart="6.40" from="-255366916#1" to="-256118455#0" />
    <trip id="65" depart="6.50" from="468753279#4" to="467772311#0" />
    <trip id="66" depart="6.60" from="246895358" to="443537622" />
    <trip id="67" depart="6.70" from="-308238866#1" to="460893410" />
    <trip id="68" depart="6.80" from="472264204#0" to="462340109#4" />
    <trip id="69" depart="6.90" from="469207061" to="-103914269#3" />
    <trip id="70" depart="7.00" from="460893411#5" to="469429383#1" />
    <trip id="71" depart="7.10" from="468753282#0" to="-256116016#5" />
    <trip id="72" depart="7.20" from="-247113617#0" to="-211118657#0" />
    <trip id="73" depart="7.30" from="118337851" to="464122996#1" />
    <trip id="74" depart="7.40" from="255362791#1" to="306848035#1" />
    <trip id="75" depart="7.50" from="-255361859#0" to="472679926#1" />
    <trip id="76" depart="7.60" from="467773236#0" to="307102517" />
    <trip id="77" depart="7.70" from="247113620#0" to="49397119" />
    <trip id="78" depart="7.80" from="472629518#3" to="468753286#3" />
    <trip id="79" depart="7.90" from="472263797#1" to="-462334369#1" />
    <trip id="80" depart="8.00" from="263336452#0" to="443612007" />
    <trip id="81" depart="8.10" from="255362764" to="-255393054#0" />
    <trip id="82" depart="8.20" from="-469207033#2" to="-255388795#1" />
    <trip id="83" depart="8.30" from="215181897#5" to="-256116015#1" />
    <trip id="84" depart="8.40" from="-464541883#1" to="247113630#3" />
    <trip id="85" depart="8.50" from="-256117457#2" to="-256117486#0" />
    <trip id="86" depart="8.60" from="307100069#5" to="447987022#1" />
    <trip id="87" depart="8.70" from="-469206986" to="464541890" />
    <trip id="88" depart="8.80" from="462813765#0" to="-256117457#2" />
    <trip id="89" depart="8.90" from="397406266#3" to="255391222" />
    <trip id="90" depart="9.00" from="-256117489#0" to="472629533#4" />
    <trip id="91" depart="9.10" from="215184535#0" to="463737884#9" />
    <trip id="92" depart="9.20" from="103914576" to="472355268#1" />
    <trip id="93" depart="9.30" from="455431572#0" to="469432292#0" />
    <trip id="94" depart="9.40" from="-255393900#0" to="255388796" />
    <trip id="95" depart="9.50" from="-306964129" to="-255363622#1" />
    <trip id="96" depart="9.60" from="469432289#2" to="255362789#1" />
    <trip id="97" depart="9.70" from="-306485567" to="224700948" />
    <trip id="98" depart="9.80" from="263335838#0" to="255362783#4" />
    <trip id="99" depart="9.90" from="256116845#1" to="447981542" />
    <trip id="100" depart="10.00" from="-255393898#3" to="-263632296" />
    <trip id="101" depart="10.10" from="468753422" to="461700083" />
    <trip id="102" depart="10.20" from="443621382#0" to="255393082#0" />
    <trip id="103" depart="10.30" from="247113634#4" to="-397406261#1" />
    <trip id="104" depart="10.40" from="397406258#5" to="463618438" />
    <trip id="105" depart="10.50" from="-306628760#2" to="397406289" />
    <trip id="106" depart="10.60" from="468753286#1" to="-446750807#2" />
    <trip id="107" depart="10.70" from="462802716#3" to="307249695#1" />
    <trip id="108" depart="10.80" from="-462340109#7" to="40106476#0" />
    <trip id="109" depart="10.90" from="307100069#5" to="464541877" />
    <trip id="110" depart="11.00" from="103914254#3" to="397406288#1" />
    <trip id="111" depart="11.10" from="443621389#0" to="103914244" />
    <trip id="112" depart="11.20" from="397406293#2" to="255362783#12" />
    <trip id="113" depart="11.30" from="-256117501#0" to="462340092" />
    <trip id="114" depart="11.40" from="469207027#1" to="472263796#0" />
    <trip id="115" depart="11.50" from="397406297#1" to="462742378" />
    <trip id="116" depart="11.60" from="461701914" to="397406268#0" />
    <trip id="117" depart="11.70" from="306982142#1" to="259544571#3" />
    <trip id="118" depart="11.80" from="255363623" to="263632295#1" />
    <trip id="119" depart="11.90" from="306484082" to="472629518#5" />
    <trip id="120" depart="12.00" from="462340108#2" to="-255391218#0" />
    <trip id="121" depart="12.10" from="-215184742#0" to="472624445#0" />
    <trip id="122" depart="12.20" from="118425141#1" to="103914254#4" />
    <trip id="123" depart="12.30" from="103914252#5" to="-255362790#2" />
    <trip id="124" depart="12.40" from="469429380#0" to="-467773242#2" />
    <trip id="125" depart="12.50" from="462819771#1" to="472263801#4" />
    <trip id="126" depart="12.60" from="256116852#1" to="256116862#3" />
    <trip id="127" depart="12.70" from="-255385471" to="255393053#1" />
    <trip id="128" depart="12.80" from="-469207060#1" to="467772312#4" />
    <trip id="129" depart="12.90" from="397406289" to="256117457#0" />
    <trip id="130" depart="13.00" from="-49397099#1" to="-397406277#2" />
    <trip id="131" depart="13.10" from="-256118459#1" to="472264206" />
    <trip id="132" depart="13.20" from="-263333983#1" to="-255393054#2" />
    <trip id="133" depart="13.30" from="462340105#7" to="472264204#1" />
    <trip id="134" depart="13.40" from="256117489#0" to="472623521#2" />
    <trip id="135" depart="13.50" from="-256116024" to="456875926" />
    <trip id="136" depart="13.60" from="-208567773#0" to="256116862#2" />
    <trip id="137" depart="13.70" from="-256118476#0" to="255393067#0" />
    <trip id="138" depart="13.80" from="-308238866#0" to="472263801#9" />
    <trip id="139" depart="13.90" from="-469207004#1" to="464541878" />
    <trip id="140" depart="14.00" from="469206988#2" to="447990271#1" />
    <trip id="141" depart="14.10" from="306848063#0" to="-255393055#0" />
    <trip id="142" depart="14.20" from="-211118654#0" to="-255362783#17" />
    <trip id="143" depart="14.30" from="-255391219#4" to="443612883" />
    <trip id="144" depart="14.40" from="103914252#11" to="462340106#2" />
    <trip id="145" depart="14.50" from="469207033#2" to="468753286#0" />
    <trip id="146" depart="14.60" from="462334367#2" to="469206994" />
    <trip id="147" depart="14.70" from="259542393#2" to="472264204#3" />
    <trip id="148" depart="14.80" from="-397406262#0" to="256117486#0" />
    <trip id="149" depart="14.90" from="469432290#0" to="-307437419#3" />
    <trip id="150" depart="15.00" from="472631503#1" to="103914269#2" />
    <trip id="151" depart="15.10" from="472263794#2" to="469207025" />
    <trip id="152" depart="15.20" from="-306982148#0" to="-103914269#10" />
    <trip id="153" depart="15.30" from="256116012#2" to="471727261#2" />
    <trip id="154" depart="15.40" from="307448980#2" to="-467773236#4" />
    <trip id="155" depart="15.50" from="255363623" to="255363612" />
    <trip id="156" depart="15.60" from="468342407#1" to="462344515#0" />
    <trip id="157" depart="15.70" from="-397406268#1" to="306628761#3" />
    <trip id="158" depart="15.80" from="255391220#0" to="472629521#1" />
    <trip id="159" depart="15.90" from="-255363606#0" to="211248020" />
    <trip id="160" depart="16.00" from="469429379#2" to="464541885" />
    <trip id="161" depart="16.10" from="397406293#1" to="-255394125#0" />
    <trip id="162" depart="16.20" from="306537046#2" to="-255362790#3" />
    <trip id="163" depart="16.30" from="-255393065#11" to="467773236#1" />
    <trip id="164" depart="16.40" from="426828165#1" to="-306482833#3" />
    <trip id="165" depart="16.50" from="-255363625" to="316015553#0" />
    <trip id="166" depart="16.60" from="462817591" to="397406289" />
    <trip id="167" depart="16.70" from="58801402" to="306482834" />
    <trip id="168" depart="16.80" from="443621389#1" to="469429391#1" />
    <trip id="169" depart="16.90" from="-255391221#4" to="-397406266#1" />
    <trip id="170" depart="17.00" from="469432294" to="472629532" />
    <trip id="171" depart="17.10" from="-463737375" to="-215184742#3" />
    <trip id="172" depart="17.20" from="472623521#2" to="472629526#1" />
    <trip id="173" depart="17.30" from="462340106#0" to="306537042#5" />
    <trip id="174" depart="17.40" from="462819768#1" to="307249695#1" />
    <trip id="175" depart="17.50" from="-306537043#1" to="462742373#0" />
    <trip id="176" depart="17.60" from="255393898#6" to="-469207084#1" />
    <trip id="177" depart="17.70" from="472355266#1" to="-306848033#0" />
    <trip id="178" depart="17.80" from="255393911" to="472631498#5" />
    <trip id="179" depart="17.90" from="-103914269#17" to="255362783#4" />
    <trip id="180" depart="18.00" from="-397406266#0" to="-332694978#6" />
    <trip id="181" depart="18.10" from="-256116853" to="211245812" />
    <trip id="182" depart="18.20" from="255393054#1" to="-255352035#1" />
    <trip id="183" depart="18.30" from="-263335836" to="468335379#0" />
    <trip id="184" depart="18.40" from="-255361859#0" to="472355268#1" />
    <trip id="185" depart="18.50" from="-304660572" to="-397406294#0" />
    <trip id="186" depart="18.60" from="467941515#1" to="467941515#1" />
    <trip id="187" depart="18.70" from="462340108#0" to="468753279#3" />
    <trip id="188" depart="18.80" from="448000709#1" to="215184535#0" />
    <trip id="189" depart="18.90" from="469207032" to="467772312#9" />
    <trip id="190" depart="19.00" from="-255366919" to="256116018#8" />
    <trip id="191" depart="19.10" from="-256118452#1" to="-255393055#0" />
    <trip id="192" depart="19.20" from="256117459#0" to="469429395#1" />
    <trip id="193" depart="19.30" from="255363610#0" to="255363620#0" />
    <trip id="194" depart="19.40" from="459577892#0" to="-211118697#0" />
    <trip id="195" depart="19.50" from="-469206963" to="397406282#0" />
    <trip id="196" depart="19.60" from="306848033#1" to="470736428" />
    <trip id="197" depart="19.70" from="-307448980#0" to="-469207027#1" />
    <trip id="198" depart="19.80" from="247113634#1" to="-49397184#1" />
    <trip id="199" depart="19.90" from="-306848056#1" to="256116025#2" />
    <trip id="200" depart="20.00" from="397406273#0" to="-397406277#1" />
    <trip id="201" depart="20.10" from="459584178" to="-397406267#1" />
    <trip id="202" depart="20.20" from="-472629521#0" to="444443539#0" />
    <trip id="203" depart="20.30" from="470734108#0" to="306848063#5" />
    <trip id="204" depart="20.40" from="256116016#4" to="443551615" />
    <trip id="205" depart="20.50" from="462819774#1" to="399365371" />
    <trip id="206" depart="20.60" from="255393063#2" to="-306848059#1" />
    <trip id="207" depart="20.70" from="307249695#1" to="49397099#2" />
    <trip id="208" depart="20.80" from="255391219#1" to="462340105#7" />
    <trip id="209" depart="20.90" from="103914254#5" to="464134309#0" />
    <trip id="210" depart="21.00" from="256116845#0" to="469206988#0" />
    <trip id="211" depart="21.10" from="-397406297#1" to="247113643#3" />
    <trip id="212" depart="21.20" from="306482837#1" to="306537042#3" />
    <trip id="213" depart="21.30" from="-91990979#1" to="-118425138" />
    <trip id="214" depart="21.40" from="472623517" to="-255363609" />
    <trip id="215" depart="21.50" from="-247113644#0" to="461700082" />
    <trip id="216" depart="21.60" from="-307437419#5" to="306783191#1" />
    <trip id="217" depart="21.70" from="306482837#0" to="-255391218#0" />
    <trip id="218" depart="21.80" from="-103914252#3" to="-255393895#3" />
    <trip id="219" depart="21.90" from="-256116847#2" to="397406293#2" />
    <trip id="220" depart="22.00" from="462340111#0" to="-306482834" />
    <trip id="221" depart="22.10" from="306783192" to="256117493#1" />
    <trip id="222" depart="22.20" from="447987020" to="246895405#1" />
    <trip id="223" depart="22.30" from="-255394133" to="295443569#0" />
    <trip id="224" depart="22.40" from="306982148#0" to="255386819#0" />
    <trip id="225" depart="22.50" from="469429394#2" to="469207011#1" />
    <trip id="226" depart="22.60" from="306848063#3" to="443532544" />
    <trip id="227" depart="22.70" from="256116016#4" to="467772311#1" />
    <trip id="228" depart="22.80" from="-468335364#3" to="-306848036#1" />
    <trip id="229" depart="22.90" from="-211118658#1" to="443609419" />
    <trip id="230" depart="23.00" from="-255394129#0" to="455431569#0" />
    <trip id="231" depart="23.10" from="-306782944" to="-103914269#8" />
    <trip id="232" depart="23.20" from="462340103#1" to="-397406273#1" />
    <trip id="233" depart="23.30" from="256116014#0" to="-255361859#2" />
    <trip id="234" depart="23.40" from="103914571#2" to="256117494" />
    <trip id="235" depart="23.50" from="316015551#3" to="-256116015#0" />
    <trip id="236" depart="23.60" from="-255352030#0" to="211118654#0" />
    <trip id="237" depart="23.70" from="256117457#3" to="456876421" />
    <trip id="238" depart="23.80" from="118337855#1" to="472631496#1" />
    <trip id="239" depart="23.90" from="472263794#0" to="247113630#3" />
    <trip id="240" depart="24.00" from="-467941515#0" to="316015546" />
    <trip id="241" depart="24.10" from="469207031" to="246895405#3" />
    <trip id="242" depart="24.20" from="447981536#3" to="397406258#2" />
    <trip id="243" depart="24.30" from="332694981" to="-307448980#1" />
    <trip id="244" depart="24.40" from="49181439" to="256117457#5" />
    <trip id="245" depart="24.50" from="256116025#1" to="-263336452#1" />
    <trip id="246" depart="24.60" from="247113634#5" to="469207063#2" />
    <trip id="247" depart="24.70" from="-306485567" to="-247113634#3" />
    <trip id="248" depart="24.80" from="461700087#3" to="472631496#1" />
    <trip id="249" depart="24.90" from="468753422" to="255351824#0" />
</trips>
