<?xml version="1.0" encoding="UTF-8"?>

<!-- generated on 03/16/16 22:31:03 by SUMO duarouter Version 0.23.0
<?xml version="1.0" encoding="UTF-8"?>

<configuration xmlns:xsi="http://www.w3.org/2001/XMLSchema-instance" xsi:noNamespaceSchemaLocation="http://sumo.dlr.de/xsd/duarouterConfiguration.xsd">

    <input>
        <net-file value="input_net.net.xml"/>
        <trip-files value="trips.trips.xml"/>
    </input>

    <output>
        <output-file value="routes.rou.xml"/>
    </output>

</configuration>
-->

<routes xmlns:xsi="http://www.w3.org/2001/XMLSchema-instance" xsi:noNamespaceSchemaLocation="http://sumo.dlr.de/xsd/routes_file.xsd">
    <vehicle id="0" depart="0.00">
        <route edges="0/1to0/0 0/0to0/1 0/1to1/1 1/1to0/1"/>
    </vehicle>
    <vehicle id="1" depart="0.50">
        <route edges="1/1to0/1 0/1to0/0 0/0to1/0"/>
    </vehicle>
</routes>
