<?xml version="1.0" encoding="UTF-8"?>

<configuration>

    <input>
        <net-file value="input_net.net.xml"/>
        <route-files value="routes.rou.xml"/>
    </input>

    <time>
        <begin value="0"/>
        <end value="600"/>
    </time>

</configuration>
