<?xml version="1.0"?>
<!-- generated on 2016-12-07 16:34:43.744000 by $Id: randomTrips.py 18756 2015-08-31 19:16:33Z behrisch $
  options: -n input_net.net.xml -e 12 -p 0.01
-->
<trips>
    <trip id="0" depart="0.00" from="3/3to3/2" to="2/3to3/3" />
    <trip id="1" depart="0.01" from="3/3to2/3" to="1/1to0/1" />
    <trip id="2" depart="0.02" from="0/4to0/3" to="3/3to3/4" />
    <trip id="3" depart="0.03" from="4/2to4/3" to="3/1to2/1" />
    <trip id="4" depart="0.04" from="3/2to3/3" to="0/1to1/1" />
    <trip id="5" depart="0.05" from="3/1to3/0" to="1/2to1/1" />
    <trip id="6" depart="0.06" from="0/2to0/1" to="4/4to4/3" />
    <trip id="7" depart="0.07" from="0/1to0/2" to="3/4to3/3" />
    <trip id="8" depart="0.08" from="0/2to1/2" to="2/3to2/2" />
    <trip id="9" depart="0.09" from="1/0to1/1" to="0/3to1/3" />
    <trip id="10" depart="0.10" from="2/3to2/2" to="2/1to3/1" />
    <trip id="11" depart="0.11" from="0/1to0/2" to="2/4to1/4" />
    <trip id="12" depart="0.12" from="0/2to0/1" to="3/2to2/2" />
    <trip id="13" depart="0.13" from="0/4to1/4" to="2/4to2/3" />
    <trip id="14" depart="0.14" from="4/3to3/3" to="3/2to3/1" />
    <trip id="15" depart="0.15" from="1/1to1/2" to="1/0to2/0" />
    <trip id="16" depart="0.16" from="2/4to2/3" to="1/1to1/2" />
    <trip id="17" depart="0.17" from="1/3to2/3" to="4/2to4/1" />
    <trip id="18" depart="0.18" from="3/4to4/4" to="3/0to2/0" />
    <trip id="19" depart="0.19" from="0/0to1/0" to="1/1to2/1" />
    <trip id="20" depart="0.20" from="1/2to1/3" to="1/3to0/3" />
    <trip id="21" depart="0.21" from="3/1to3/2" to="2/2to2/1" />
    <trip id="22" depart="0.22" from="1/2to0/2" to="4/2to3/2" />
    <trip id="23" depart="0.23" from="3/4to2/4" to="4/4to4/3" />
    <trip id="24" depart="0.24" from="2/4to3/4" to="4/4to4/3" />
    <trip id="25" depart="0.25" from="2/4to2/3" to="2/3to1/3" />
    <trip id="26" depart="0.26" from="3/3to3/2" to="2/0to2/1" />
    <trip id="27" depart="0.27" from="3/2to3/3" to="4/1to4/2" />
    <trip id="28" depart="0.28" from="3/4to3/3" to="1/1to1/0" />
    <trip id="29" depart="0.29" from="2/2to2/1" to="2/1to2/0" />
    <trip id="30" depart="0.30" from="4/1to4/2" to="3/1to3/2" />
    <trip id="31" depart="0.31" from="1/2to1/3" to="2/0to2/1" />
    <trip id="32" depart="0.32" from="1/4to2/4" to="3/4to3/3" />
    <trip id="33" depart="0.33" from="2/4to1/4" to="2/2to3/2" />
    <trip id="34" depart="0.34" from="1/0to1/1" to="2/3to3/3" />
    <trip id="35" depart="0.35" from="2/0to2/1" to="3/4to2/4" />
    <trip id="36" depart="0.36" from="0/1to0/0" to="2/1to1/1" />
    <trip id="37" depart="0.37" from="1/3to1/4" to="1/3to0/3" />
    <trip id="38" depart="0.38" from="3/3to4/3" to="3/1to3/0" />
    <trip id="39" depart="0.39" from="0/4to1/4" to="1/0to1/1" />
    <trip id="40" depart="0.40" from="3/2to4/2" to="2/1to3/1" />
    <trip id="41" depart="0.41" from="3/1to3/2" to="1/0to2/0" />
    <trip id="42" depart="0.42" from="3/4to2/4" to="3/3to2/3" />
    <trip id="43" depart="0.43" from="2/4to2/3" to="4/1to4/0" />
    <trip id="44" depart="0.44" from="3/1to2/1" to="2/3to2/2" />
    <trip id="45" depart="0.45" from="4/3to4/2" to="1/0to1/1" />
    <trip id="46" depart="0.46" from="1/4to2/4" to="1/2to0/2" />
    <trip id="47" depart="0.47" from="1/2to1/1" to="1/1to1/2" />
    <trip id="48" depart="0.48" from="4/1to4/2" to="2/4to1/4" />
    <trip id="49" depart="0.49" from="1/3to1/2" to="2/1to2/2" />
    <trip id="50" depart="0.50" from="2/3to3/3" to="2/3to3/3" />
    <trip id="51" depart="0.51" from="4/2to4/1" to="2/0to1/0" />
    <trip id="52" depart="0.52" from="3/1to3/0" to="4/1to4/0" />
    <trip id="53" depart="0.53" from="3/0to3/1" to="4/2to4/1" />
    <trip id="54" depart="0.54" from="2/0to3/0" to="0/2to1/2" />
    <trip id="55" depart="0.55" from="4/2to4/1" to="4/3to4/4" />
    <trip id="56" depart="0.56" from="1/2to2/2" to="3/2to3/3" />
    <trip id="57" depart="0.57" from="3/1to3/2" to="2/4to3/4" />
    <trip id="58" depart="0.58" from="4/2to4/1" to="0/4to1/4" />
    <trip id="59" depart="0.59" from="0/0to1/0" to="0/0to0/1" />
    <trip id="60" depart="0.60" from="0/2to0/3" to="1/0to2/0" />
    <trip id="61" depart="0.61" from="1/3to1/2" to="2/0to3/0" />
    <trip id="62" depart="0.62" from="4/2to4/3" to="0/1to0/2" />
    <trip id="63" depart="0.63" from="3/3to3/2" to="2/3to1/3" />
    <trip id="64" depart="0.64" from="3/1to2/1" to="2/3to3/3" />
    <trip id="65" depart="0.65" from="1/4to1/3" to="4/4to4/3" />
    <trip id="66" depart="0.66" from="2/1to3/1" to="0/2to1/2" />
    <trip id="67" depart="0.67" from="4/1to4/0" to="0/4to1/4" />
    <trip id="68" depart="0.68" from="4/4to3/4" to="2/0to3/0" />
    <trip id="69" depart="0.69" from="4/0to3/0" to="2/1to1/1" />
    <trip id="70" depart="0.70" from="2/1to1/1" to="2/2to3/2" />
    <trip id="71" depart="0.71" from="4/1to4/2" to="3/0to2/0" />
    <trip id="72" depart="0.72" from="3/1to3/2" to="2/1to1/1" />
    <trip id="73" depart="0.73" from="3/3to3/4" to="4/0to3/0" />
    <trip id="74" depart="0.74" from="1/4to0/4" to="1/0to1/1" />
    <trip id="75" depart="0.75" from="4/2to3/2" to="4/1to3/1" />
    <trip id="76" depart="0.76" from="0/4to0/3" to="2/2to2/3" />
    <trip id="77" depart="0.77" from="0/4to1/4" to="2/1to2/0" />
    <trip id="78" depart="0.78" from="4/3to4/4" to="2/4to1/4" />
    <trip id="79" depart="0.79" from="2/2to3/2" to="4/3to3/3" />
    <trip id="80" depart="0.80" from="2/1to2/2" to="4/2to4/3" />
    <trip id="81" depart="0.81" from="4/1to4/0" to="2/4to3/4" />
    <trip id="82" depart="0.82" from="0/0to0/1" to="1/3to2/3" />
    <trip id="83" depart="0.83" from="2/2to3/2" to="1/3to1/2" />
    <trip id="84" depart="0.84" from="1/3to2/3" to="1/2to0/2" />
    <trip id="85" depart="0.85" from="1/4to2/4" to="2/2to3/2" />
    <trip id="86" depart="0.86" from="2/2to3/2" to="1/4to0/4" />
    <trip id="87" depart="0.87" from="2/2to2/3" to="1/2to1/1" />
    <trip id="88" depart="0.88" from="1/1to1/0" to="3/1to3/0" />
    <trip id="89" depart="0.89" from="2/1to3/1" to="2/1to1/1" />
    <trip id="90" depart="0.90" from="4/4to4/3" to="1/3to1/2" />
    <trip id="91" depart="0.91" from="2/4to3/4" to="0/2to0/3" />
    <trip id="92" depart="0.92" from="4/0to3/0" to="2/4to3/4" />
    <trip id="93" depart="0.93" from="4/3to4/2" to="4/3to3/3" />
    <trip id="94" depart="0.94" from="2/4to1/4" to="2/1to1/1" />
    <trip id="95" depart="0.95" from="2/3to2/2" to="2/4to1/4" />
    <trip id="96" depart="0.96" from="1/3to2/3" to="2/1to3/1" />
    <trip id="97" depart="0.97" from="3/1to3/0" to="0/3to1/3" />
    <trip id="98" depart="0.98" from="1/0to2/0" to="1/1to1/2" />
    <trip id="99" depart="0.99" from="1/1to2/1" to="0/2to1/2" />
    <trip id="100" depart="1.00" from="0/0to1/0" to="4/1to4/0" />
    <trip id="101" depart="1.01" from="2/1to1/1" to="0/4to1/4" />
    <trip id="102" depart="1.02" from="3/1to2/1" to="1/1to1/0" />
    <trip id="103" depart="1.03" from="4/1to3/1" to="2/4to3/4" />
    <trip id="104" depart="1.04" from="4/0to3/0" to="3/3to2/3" />
    <trip id="105" depart="1.05" from="2/2to2/1" to="2/2to2/3" />
    <trip id="106" depart="1.06" from="1/2to0/2" to="1/0to0/0" />
    <trip id="107" depart="1.07" from="4/1to3/1" to="3/4to2/4" />
    <trip id="108" depart="1.08" from="2/4to3/4" to="2/4to3/4" />
    <trip id="109" depart="1.09" from="0/3to1/3" to="2/1to3/1" />
    <trip id="110" depart="1.10" from="2/2to2/1" to="1/2to2/2" />
    <trip id="111" depart="1.11" from="1/2to0/2" to="0/3to0/2" />
    <trip id="112" depart="1.12" from="1/1to1/0" to="2/1to2/0" />
    <trip id="113" depart="1.13" from="1/2to1/3" to="0/1to0/2" />
    <trip id="114" depart="1.14" from="0/2to0/1" to="3/1to3/2" />
    <trip id="115" depart="1.15" from="2/0to2/1" to="2/2to3/2" />
    <trip id="116" depart="1.16" from="3/3to2/3" to="3/3to2/3" />
    <trip id="117" depart="1.17" from="2/1to2/2" to="4/3to4/2" />
    <trip id="118" depart="1.18" from="1/4to0/4" to="2/3to2/2" />
    <trip id="119" depart="1.19" from="0/1to1/1" to="4/0to3/0" />
    <trip id="120" depart="1.20" from="1/2to1/3" to="4/1to3/1" />
    <trip id="121" depart="1.21" from="0/2to0/3" to="0/1to0/0" />
    <trip id="122" depart="1.22" from="3/0to2/0" to="1/2to0/2" />
    <trip id="123" depart="1.23" from="2/3to2/2" to="3/0to3/1" />
    <trip id="124" depart="1.24" from="0/2to1/2" to="2/3to2/4" />
    <trip id="125" depart="1.25" from="1/3to1/2" to="2/4to2/3" />
    <trip id="126" depart="1.26" from="0/1to1/1" to="2/2to3/2" />
    <trip id="127" depart="1.27" from="1/1to2/1" to="0/1to1/1" />
    <trip id="128" depart="1.28" from="2/0to2/1" to="2/0to1/0" />
    <trip id="129" depart="1.29" from="0/0to0/1" to="3/0to2/0" />
    <trip id="130" depart="1.30" from="3/2to3/1" to="1/1to2/1" />
    <trip id="131" depart="1.31" from="4/1to4/0" to="3/3to3/4" />
    <trip id="132" depart="1.32" from="2/2to2/3" to="3/2to2/2" />
    <trip id="133" depart="1.33" from="3/4to2/4" to="1/1to2/1" />
    <trip id="134" depart="1.34" from="3/0to2/0" to="3/0to4/0" />
    <trip id="135" depart="1.35" from="2/1to3/1" to="1/4to1/3" />
    <trip id="136" depart="1.36" from="1/0to1/1" to="2/0to3/0" />
    <trip id="137" depart="1.37" from="1/4to1/3" to="2/1to3/1" />
    <trip id="138" depart="1.38" from="4/1to3/1" to="0/1to0/2" />
    <trip id="139" depart="1.39" from="1/1to1/2" to="3/3to2/3" />
    <trip id="140" depart="1.40" from="1/2to0/2" to="1/0to0/0" />
    <trip id="141" depart="1.41" from="0/3to1/3" to="4/3to4/2" />
    <trip id="142" depart="1.42" from="2/2to2/1" to="2/4to2/3" />
    <trip id="143" depart="1.43" from="4/2to4/1" to="3/0to4/0" />
    <trip id="144" depart="1.44" from="4/1to4/0" to="3/4to2/4" />
    <trip id="145" depart="1.45" from="4/2to4/1" to="3/1to3/2" />
    <trip id="146" depart="1.46" from="3/1to3/0" to="1/0to1/1" />
    <trip id="147" depart="1.47" from="0/1to0/2" to="2/3to1/3" />
    <trip id="148" depart="1.48" from="0/1to0/2" to="0/3to1/3" />
    <trip id="149" depart="1.49" from="2/1to2/2" to="1/2to1/1" />
    <trip id="150" depart="1.50" from="2/2to2/1" to="0/2to1/2" />
    <trip id="151" depart="1.51" from="0/2to0/3" to="1/1to0/1" />
    <trip id="152" depart="1.52" from="1/2to1/1" to="2/0to1/0" />
    <trip id="153" depart="1.53" from="3/4to4/4" to="1/2to1/1" />
    <trip id="154" depart="1.54" from="3/0to3/1" to="3/3to2/3" />
    <trip id="155" depart="1.55" from="4/2to4/3" to="0/2to0/1" />
    <trip id="156" depart="1.56" from="1/3to1/4" to="2/1to2/0" />
    <trip id="157" depart="1.57" from="2/0to1/0" to="4/2to3/2" />
    <trip id="158" depart="1.58" from="3/3to2/3" to="2/3to2/4" />
    <trip id="159" depart="1.59" from="4/1to3/1" to="0/3to1/3" />
    <trip id="160" depart="1.60" from="2/3to2/2" to="0/3to1/3" />
    <trip id="161" depart="1.61" from="3/4to4/4" to="0/3to0/2" />
    <trip id="162" depart="1.62" from="4/3to4/2" to="1/4to0/4" />
    <trip id="163" depart="1.63" from="1/2to2/2" to="1/4to2/4" />
    <trip id="164" depart="1.64" from="2/4to2/3" to="2/1to3/1" />
    <trip id="165" depart="1.65" from="4/2to4/1" to="0/1to0/2" />
    <trip id="166" depart="1.66" from="3/1to2/1" to="1/0to1/1" />
    <trip id="167" depart="1.67" from="4/3to4/2" to="2/3to1/3" />
    <trip id="168" depart="1.68" from="3/3to3/2" to="4/3to4/4" />
    <trip id="169" depart="1.69" from="4/3to3/3" to="3/0to3/1" />
    <trip id="170" depart="1.70" from="4/2to3/2" to="2/2to2/3" />
    <trip id="171" depart="1.71" from="2/1to2/2" to="1/1to1/2" />
    <trip id="172" depart="1.72" from="2/2to2/3" to="0/4to1/4" />
    <trip id="173" depart="1.73" from="4/1to4/2" to="3/3to3/2" />
    <trip id="174" depart="1.74" from="3/4to2/4" to="1/3to1/2" />
    <trip id="175" depart="1.75" from="0/0to1/0" to="4/3to4/2" />
    <trip id="176" depart="1.76" from="0/4to0/3" to="2/1to2/2" />
    <trip id="177" depart="1.77" from="2/1to1/1" to="3/0to3/1" />
    <trip id="178" depart="1.78" from="2/3to3/3" to="2/4to2/3" />
    <trip id="179" depart="1.79" from="1/1to1/2" to="2/2to1/2" />
    <trip id="180" depart="1.80" from="3/1to4/1" to="3/1to3/0" />
    <trip id="181" depart="1.81" from="2/2to3/2" to="2/1to1/1" />
    <trip id="182" depart="1.82" from="1/4to2/4" to="2/3to3/3" />
    <trip id="183" depart="1.83" from="1/3to2/3" to="4/3to4/2" />
    <trip id="184" depart="1.84" from="1/2to1/1" to="4/1to3/1" />
    <trip id="185" depart="1.85" from="1/3to2/3" to="4/4to3/4" />
    <trip id="186" depart="1.86" from="3/0to4/0" to="0/2to0/1" />
    <trip id="187" depart="1.87" from="4/3to4/2" to="0/4to0/3" />
    <trip id="188" depart="1.88" from="3/3to3/4" to="4/0to4/1" />
    <trip id="189" depart="1.89" from="1/1to1/0" to="2/3to1/3" />
    <trip id="190" depart="1.90" from="0/1to0/2" to="3/2to2/2" />
    <trip id="191" depart="1.91" from="2/4to1/4" to="1/3to1/4" />
    <trip id="192" depart="1.92" from="3/3to3/4" to="2/0to2/1" />
    <trip id="193" depart="1.93" from="1/0to2/0" to="3/4to4/4" />
    <trip id="194" depart="1.94" from="2/2to2/1" to="3/2to4/2" />
    <trip id="195" depart="1.95" from="3/1to3/2" to="2/3to2/4" />
    <trip id="196" depart="1.96" from="4/2to4/1" to="3/3to3/4" />
    <trip id="197" depart="1.97" from="2/4to1/4" to="2/3to1/3" />
    <trip id="198" depart="1.98" from="4/3to3/3" to="3/0to3/1" />
    <trip id="199" depart="1.99" from="2/2to2/3" to="3/4to4/4" />
    <trip id="200" depart="2.00" from="3/0to3/1" to="2/0to1/0" />
    <trip id="201" depart="2.01" from="2/1to2/0" to="3/3to4/3" />
    <trip id="202" depart="2.02" from="2/2to2/3" to="0/0to0/1" />
    <trip id="203" depart="2.03" from="2/0to1/0" to="2/3to1/3" />
    <trip id="204" depart="2.04" from="3/1to4/1" to="0/0to1/0" />
    <trip id="205" depart="2.05" from="2/1to2/2" to="4/3to3/3" />
    <trip id="206" depart="2.06" from="4/3to4/2" to="1/0to0/0" />
    <trip id="207" depart="2.07" from="1/1to1/2" to="1/3to2/3" />
    <trip id="208" depart="2.08" from="4/1to4/0" to="0/2to0/3" />
    <trip id="209" depart="2.09" from="3/0to4/0" to="1/3to1/2" />
    <trip id="210" depart="2.10" from="2/2to2/1" to="1/1to1/0" />
    <trip id="211" depart="2.11" from="3/4to2/4" to="3/4to4/4" />
    <trip id="212" depart="2.12" from="3/4to2/4" to="1/4to0/4" />
    <trip id="213" depart="2.13" from="1/4to0/4" to="0/3to1/3" />
    <trip id="214" depart="2.14" from="2/0to1/0" to="4/3to3/3" />
    <trip id="215" depart="2.15" from="4/3to4/4" to="0/2to0/3" />
    <trip id="216" depart="2.16" from="2/2to2/1" to="0/3to1/3" />
    <trip id="217" depart="2.17" from="1/1to2/1" to="1/4to0/4" />
    <trip id="218" depart="2.18" from="2/3to2/4" to="2/2to2/1" />
    <trip id="219" depart="2.19" from="3/0to2/0" to="3/2to2/2" />
    <trip id="220" depart="2.20" from="0/4to1/4" to="2/1to2/0" />
    <trip id="221" depart="2.21" from="1/2to1/1" to="3/1to3/0" />
    <trip id="222" depart="2.22" from="2/3to1/3" to="0/3to0/2" />
    <trip id="223" depart="2.23" from="2/0to2/1" to="1/2to1/3" />
    <trip id="224" depart="2.24" from="4/3to4/4" to="4/4to4/3" />
    <trip id="225" depart="2.25" from="2/2to2/1" to="2/4to3/4" />
    <trip id="226" depart="2.26" from="3/4to3/3" to="1/3to1/2" />
    <trip id="227" depart="2.27" from="3/3to3/4" to="0/4to1/4" />
    <trip id="228" depart="2.28" from="0/2to0/1" to="3/4to2/4" />
    <trip id="229" depart="2.29" from="4/2to4/1" to="2/2to1/2" />
    <trip id="230" depart="2.30" from="1/4to0/4" to="1/1to2/1" />
    <trip id="231" depart="2.31" from="2/3to3/3" to="4/1to3/1" />
    <trip id="232" depart="2.32" from="4/1to4/2" to="3/4to2/4" />
    <trip id="233" depart="2.33" from="0/2to0/1" to="2/1to3/1" />
    <trip id="234" depart="2.34" from="1/3to1/2" to="0/4to1/4" />
    <trip id="235" depart="2.35" from="4/3to3/3" to="2/4to3/4" />
    <trip id="236" depart="2.36" from="0/0to1/0" to="4/1to4/0" />
    <trip id="237" depart="2.37" from="1/1to1/0" to="3/1to2/1" />
    <trip id="238" depart="2.38" from="4/0to3/0" to="0/1to1/1" />
    <trip id="239" depart="2.39" from="1/0to2/0" to="3/3to2/3" />
    <trip id="240" depart="2.40" from="4/2to4/1" to="0/2to0/3" />
    <trip id="241" depart="2.41" from="4/3to4/2" to="0/0to0/1" />
    <trip id="242" depart="2.42" from="2/1to2/0" to="1/1to1/2" />
    <trip id="243" depart="2.43" from="2/2to2/1" to="1/4to2/4" />
    <trip id="244" depart="2.44" from="2/4to1/4" to="3/2to2/2" />
    <trip id="245" depart="2.45" from="3/1to3/2" to="3/3to3/4" />
    <trip id="246" depart="2.46" from="4/1to4/2" to="0/2to0/1" />
    <trip id="247" depart="2.47" from="0/2to0/1" to="4/2to3/2" />
    <trip id="248" depart="2.48" from="1/1to2/1" to="2/3to2/4" />
    <trip id="249" depart="2.49" from="4/2to4/3" to="3/3to3/4" />
    <trip id="250" depart="2.50" from="2/0to2/1" to="0/4to0/3" />
    <trip id="251" depart="2.51" from="1/4to2/4" to="2/1to1/1" />
    <trip id="252" depart="2.52" from="0/4to1/4" to="4/2to4/3" />
    <trip id="253" depart="2.53" from="4/3to4/4" to="0/1to1/1" />
    <trip id="254" depart="2.54" from="3/0to2/0" to="1/2to1/3" />
    <trip id="255" depart="2.55" from="2/2to1/2" to="0/2to0/3" />
    <trip id="256" depart="2.56" from="1/2to1/3" to="1/4to2/4" />
    <trip id="257" depart="2.57" from="2/1to2/0" to="4/1to3/1" />
    <trip id="258" depart="2.58" from="3/2to2/2" to="3/2to2/2" />
    <trip id="259" depart="2.59" from="0/0to1/0" to="2/0to3/0" />
    <trip id="260" depart="2.60" from="3/0to3/1" to="0/0to1/0" />
    <trip id="261" depart="2.61" from="1/0to2/0" to="4/1to4/0" />
    <trip id="262" depart="2.62" from="0/2to1/2" to="0/1to0/2" />
    <trip id="263" depart="2.63" from="3/1to3/0" to="2/3to3/3" />
    <trip id="264" depart="2.64" from="2/0to1/0" to="1/1to2/1" />
    <trip id="265" depart="2.65" from="3/2to2/2" to="0/3to1/3" />
    <trip id="266" depart="2.66" from="3/3to3/4" to="2/3to1/3" />
    <trip id="267" depart="2.67" from="3/2to3/1" to="1/2to1/1" />
    <trip id="268" depart="2.68" from="4/2to3/2" to="3/2to3/3" />
    <trip id="269" depart="2.69" from="4/4to4/3" to="1/3to1/2" />
    <trip id="270" depart="2.70" from="1/0to0/0" to="0/2to0/1" />
    <trip id="271" depart="2.71" from="3/1to3/2" to="3/1to3/0" />
    <trip id="272" depart="2.72" from="4/3to4/2" to="3/4to3/3" />
    <trip id="273" depart="2.73" from="1/2to0/2" to="1/0to0/0" />
    <trip id="274" depart="2.74" from="4/2to3/2" to="1/4to2/4" />
    <trip id="275" depart="2.75" from="3/3to3/4" to="2/3to2/2" />
    <trip id="276" depart="2.76" from="1/3to2/3" to="0/2to0/1" />
    <trip id="277" depart="2.77" from="4/0to3/0" to="3/2to2/2" />
    <trip id="278" depart="2.78" from="3/1to3/0" to="3/1to4/1" />
    <trip id="279" depart="2.79" from="1/3to1/2" to="1/1to1/0" />
    <trip id="280" depart="2.80" from="1/0to2/0" to="3/2to4/2" />
    <trip id="281" depart="2.81" from="4/1to4/2" to="4/3to3/3" />
    <trip id="282" depart="2.82" from="4/1to4/0" to="3/3to3/2" />
    <trip id="283" depart="2.83" from="0/1to1/1" to="2/2to2/1" />
    <trip id="284" depart="2.84" from="4/2to3/2" to="4/1to4/2" />
    <trip id="285" depart="2.85" from="2/2to1/2" to="3/3to2/3" />
    <trip id="286" depart="2.86" from="4/0to3/0" to="3/1to3/2" />
    <trip id="287" depart="2.87" from="4/1to3/1" to="4/1to3/1" />
    <trip id="288" depart="2.88" from="3/3to3/4" to="2/4to2/3" />
    <trip id="289" depart="2.89" from="3/2to3/3" to="0/3to0/2" />
    <trip id="290" depart="2.90" from="2/3to2/4" to="3/0to4/0" />
    <trip id="291" depart="2.91" from="2/4to2/3" to="0/2to0/3" />
    <trip id="292" depart="2.92" from="1/1to0/1" to="2/0to3/0" />
    <trip id="293" depart="2.93" from="3/1to2/1" to="1/0to1/1" />
    <trip id="294" depart="2.94" from="2/1to2/2" to="0/0to0/1" />
    <trip id="295" depart="2.95" from="3/2to3/3" to="2/1to3/1" />
    <trip id="296" depart="2.96" from="2/2to1/2" to="0/4to1/4" />
    <trip id="297" depart="2.97" from="0/0to0/1" to="4/0to4/1" />
    <trip id="298" depart="2.98" from="0/1to1/1" to="3/2to3/1" />
    <trip id="299" depart="2.99" from="1/3to0/3" to="1/1to2/1" />
    <trip id="300" depart="3.00" from="1/3to1/4" to="3/0to3/1" />
    <trip id="301" depart="3.01" from="3/1to2/1" to="2/1to3/1" />
    <trip id="302" depart="3.02" from="2/2to2/1" to="0/0to1/0" />
    <trip id="303" depart="3.03" from="2/0to1/0" to="3/2to2/2" />
    <trip id="304" depart="3.04" from="2/1to2/2" to="4/3to4/4" />
    <trip id="305" depart="3.05" from="0/3to0/2" to="1/4to0/4" />
    <trip id="306" depart="3.06" from="4/4to4/3" to="4/1to4/0" />
    <trip id="307" depart="3.07" from="2/3to2/4" to="3/1to4/1" />
    <trip id="308" depart="3.08" from="1/4to1/3" to="0/3to0/4" />
    <trip id="309" depart="3.09" from="0/1to0/2" to="1/1to1/0" />
    <trip id="310" depart="3.10" from="4/2to3/2" to="0/3to0/2" />
    <trip id="311" depart="3.11" from="0/1to1/1" to="2/1to2/0" />
    <trip id="312" depart="3.12" from="0/1to1/1" to="3/3to4/3" />
    <trip id="313" depart="3.13" from="3/3to3/4" to="2/1to3/1" />
    <trip id="314" depart="3.14" from="3/1to3/0" to="1/1to0/1" />
    <trip id="315" depart="3.15" from="3/3to2/3" to="4/1to3/1" />
    <trip id="316" depart="3.16" from="1/0to2/0" to="0/4to1/4" />
    <trip id="317" depart="3.17" from="2/1to2/2" to="2/4to1/4" />
    <trip id="318" depart="3.18" from="3/3to3/2" to="0/1to0/0" />
    <trip id="319" depart="3.19" from="1/3to2/3" to="4/4to3/4" />
    <trip id="320" depart="3.20" from="1/2to1/3" to="0/3to1/3" />
    <trip id="321" depart="3.21" from="3/2to3/3" to="1/3to2/3" />
    <trip id="322" depart="3.22" from="3/4to3/3" to="1/0to2/0" />
    <trip id="323" depart="3.23" from="3/1to3/2" to="3/2to4/2" />
    <trip id="324" depart="3.24" from="3/3to2/3" to="1/0to1/1" />
    <trip id="325" depart="3.25" from="3/0to2/0" to="0/1to1/1" />
    <trip id="326" depart="3.26" from="4/2to4/3" to="3/3to4/3" />
    <trip id="327" depart="3.27" from="3/3to2/3" to="1/4to0/4" />
    <trip id="328" depart="3.28" from="1/2to0/2" to="2/1to3/1" />
    <trip id="329" depart="3.29" from="1/2to1/1" to="1/0to0/0" />
    <trip id="330" depart="3.30" from="3/2to2/2" to="3/2to3/3" />
    <trip id="331" depart="3.31" from="1/2to1/3" to="2/0to2/1" />
    <trip id="332" depart="3.32" from="4/1to3/1" to="4/0to3/0" />
    <trip id="333" depart="3.33" from="3/4to2/4" to="1/1to1/0" />
    <trip id="334" depart="3.34" from="4/3to4/2" to="1/2to1/1" />
    <trip id="335" depart="3.35" from="2/1to3/1" to="0/3to0/4" />
    <trip id="336" depart="3.36" from="1/0to1/1" to="4/1to3/1" />
    <trip id="337" depart="3.37" from="2/4to3/4" to="3/1to3/2" />
    <trip id="338" depart="3.38" from="1/0to2/0" to="1/3to0/3" />
    <trip id="339" depart="3.39" from="2/2to1/2" to="1/0to1/1" />
    <trip id="340" depart="3.40" from="1/2to1/1" to="1/1to2/1" />
    <trip id="341" depart="3.41" from="1/3to2/3" to="0/3to1/3" />
    <trip id="342" depart="3.42" from="3/4to2/4" to="2/2to2/3" />
    <trip id="343" depart="3.43" from="2/1to2/2" to="3/2to2/2" />
    <trip id="344" depart="3.44" from="0/0to1/0" to="4/3to4/4" />
    <trip id="345" depart="3.45" from="4/2to4/1" to="2/4to1/4" />
    <trip id="346" depart="3.46" from="1/0to0/0" to="4/3to4/2" />
    <trip id="347" depart="3.47" from="1/1to2/1" to="1/3to1/4" />
    <trip id="348" depart="3.48" from="1/4to1/3" to="3/1to3/2" />
    <trip id="349" depart="3.49" from="0/3to0/4" to="1/2to0/2" />
    <trip id="350" depart="3.50" from="2/1to3/1" to="0/3to0/4" />
    <trip id="351" depart="3.51" from="0/3to0/2" to="4/1to4/2" />
    <trip id="352" depart="3.52" from="3/4to2/4" to="3/4to3/3" />
    <trip id="353" depart="3.53" from="0/1to0/2" to="0/0to0/1" />
    <trip id="354" depart="3.54" from="2/1to3/1" to="3/1to3/2" />
    <trip id="355" depart="3.55" from="4/3to4/4" to="0/3to1/3" />
    <trip id="356" depart="3.56" from="2/2to2/1" to="3/4to3/3" />
    <trip id="357" depart="3.57" from="1/2to2/2" to="4/4to3/4" />
    <trip id="358" depart="3.58" from="3/0to4/0" to="1/3to0/3" />
    <trip id="359" depart="3.59" from="2/0to2/1" to="1/0to1/1" />
    <trip id="360" depart="3.60" from="4/4to4/3" to="2/3to3/3" />
    <trip id="361" depart="3.61" from="0/1to0/0" to="1/1to0/1" />
    <trip id="362" depart="3.62" from="2/2to3/2" to="0/1to0/2" />
    <trip id="363" depart="3.63" from="2/4to2/3" to="0/4to1/4" />
    <trip id="364" depart="3.64" from="2/0to2/1" to="4/0to3/0" />
    <trip id="365" depart="3.65" from="2/0to1/0" to="2/4to2/3" />
    <trip id="366" depart="3.66" from="3/4to4/4" to="3/2to4/2" />
    <trip id="367" depart="3.67" from="1/3to0/3" to="0/3to0/2" />
    <trip id="368" depart="3.68" from="4/1to4/2" to="3/0to2/0" />
    <trip id="369" depart="3.69" from="1/1to1/0" to="3/1to3/0" />
    <trip id="370" depart="3.70" from="1/1to0/1" to="0/0to1/0" />
    <trip id="371" depart="3.71" from="3/3to4/3" to="1/1to1/0" />
    <trip id="372" depart="3.72" from="1/1to1/2" to="2/2to1/2" />
    <trip id="373" depart="3.73" from="1/4to0/4" to="2/3to1/3" />
    <trip id="374" depart="3.74" from="0/1to0/2" to="2/2to1/2" />
    <trip id="375" depart="3.75" from="1/3to0/3" to="4/2to4/3" />
    <trip id="376" depart="3.76" from="2/3to3/3" to="2/0to1/0" />
    <trip id="377" depart="3.77" from="0/2to1/2" to="2/4to1/4" />
    <trip id="378" depart="3.78" from="3/4to2/4" to="2/2to2/1" />
    <trip id="379" depart="3.79" from="1/1to1/0" to="1/4to1/3" />
    <trip id="380" depart="3.80" from="2/0to3/0" to="3/2to3/1" />
    <trip id="381" depart="3.81" from="4/3to4/2" to="1/4to2/4" />
    <trip id="382" depart="3.82" from="1/1to1/2" to="4/3to4/4" />
    <trip id="383" depart="3.83" from="2/2to1/2" to="0/1to1/1" />
    <trip id="384" depart="3.84" from="2/2to2/1" to="4/1to4/2" />
    <trip id="385" depart="3.85" from="0/1to0/0" to="3/1to2/1" />
    <trip id="386" depart="3.86" from="2/1to1/1" to="2/3to3/3" />
    <trip id="387" depart="3.87" from="2/3to2/2" to="3/1to3/2" />
    <trip id="388" depart="3.88" from="0/1to0/2" to="1/0to1/1" />
    <trip id="389" depart="3.89" from="2/0to2/1" to="0/1to0/0" />
    <trip id="390" depart="3.90" from="4/2to3/2" to="3/1to2/1" />
    <trip id="391" depart="3.91" from="2/4to3/4" to="1/2to2/2" />
    <trip id="392" depart="3.92" from="4/2to4/1" to="2/4to3/4" />
    <trip id="393" depart="3.93" from="0/1to0/2" to="2/2to2/3" />
    <trip id="394" depart="3.94" from="3/1to3/2" to="0/4to1/4" />
    <trip id="395" depart="3.95" from="2/4to3/4" to="4/3to3/3" />
    <trip id="396" depart="3.96" from="2/1to2/0" to="3/1to2/1" />
    <trip id="397" depart="3.97" from="1/2to2/2" to="3/0to3/1" />
    <trip id="398" depart="3.98" from="0/2to0/3" to="2/0to1/0" />
    <trip id="399" depart="3.99" from="4/1to3/1" to="3/1to3/0" />
    <trip id="400" depart="4.00" from="1/4to1/3" to="4/2to4/3" />
    <trip id="401" depart="4.01" from="4/3to3/3" to="0/1to0/0" />
    <trip id="402" depart="4.02" from="3/2to2/2" to="2/2to2/3" />
    <trip id="403" depart="4.03" from="3/3to4/3" to="1/4to2/4" />
    <trip id="404" depart="4.04" from="2/3to2/4" to="2/2to3/2" />
    <trip id="405" depart="4.05" from="1/4to2/4" to="4/4to3/4" />
    <trip id="406" depart="4.06" from="3/3to3/2" to="3/2to2/2" />
    <trip id="407" depart="4.07" from="4/2to4/3" to="1/1to0/1" />
    <trip id="408" depart="4.08" from="4/1to4/2" to="0/2to0/1" />
    <trip id="409" depart="4.09" from="2/1to2/2" to="1/2to2/2" />
    <trip id="410" depart="4.10" from="4/3to4/4" to="4/2to4/3" />
    <trip id="411" depart="4.11" from="3/2to4/2" to="4/2to4/1" />
    <trip id="412" depart="4.12" from="2/2to2/3" to="0/3to0/4" />
    <trip id="413" depart="4.13" from="2/1to3/1" to="2/2to2/3" />
    <trip id="414" depart="4.14" from="2/3to2/2" to="0/0to1/0" />
    <trip id="415" depart="4.15" from="2/1to1/1" to="0/3to0/2" />
    <trip id="416" depart="4.16" from="3/3to4/3" to="1/3to1/4" />
    <trip id="417" depart="4.17" from="2/0to1/0" to="1/4to1/3" />
    <trip id="418" depart="4.18" from="0/4to1/4" to="4/1to4/0" />
    <trip id="419" depart="4.19" from="0/2to0/3" to="3/3to3/4" />
    <trip id="420" depart="4.20" from="1/3to1/4" to="2/3to1/3" />
    <trip id="421" depart="4.21" from="4/3to4/2" to="0/2to1/2" />
    <trip id="422" depart="4.22" from="3/4to2/4" to="4/0to4/1" />
    <trip id="423" depart="4.23" from="3/3to4/3" to="3/2to2/2" />
    <trip id="424" depart="4.24" from="1/0to1/1" to="2/4to2/3" />
    <trip id="425" depart="4.25" from="0/1to1/1" to="1/0to0/0" />
    <trip id="426" depart="4.26" from="1/0to1/1" to="4/3to4/2" />
    <trip id="427" depart="4.27" from="0/4to1/4" to="1/4to2/4" />
    <trip id="428" depart="4.28" from="1/1to0/1" to="2/2to1/2" />
    <trip id="429" depart="4.29" from="3/2to3/1" to="3/0to2/0" />
    <trip id="430" depart="4.30" from="2/4to1/4" to="0/1to0/2" />
    <trip id="431" depart="4.31" from="2/2to2/1" to="0/4to1/4" />
    <trip id="432" depart="4.32" from="3/3to3/4" to="2/2to2/1" />
    <trip id="433" depart="4.33" from="3/0to3/1" to="1/2to1/3" />
    <trip id="434" depart="4.34" from="2/2to3/2" to="1/3to1/2" />
    <trip id="435" depart="4.35" from="1/1to1/0" to="3/2to2/2" />
    <trip id="436" depart="4.36" from="3/3to2/3" to="3/3to2/3" />
    <trip id="437" depart="4.37" from="3/2to3/3" to="2/0to3/0" />
    <trip id="438" depart="4.38" from="3/3to4/3" to="1/1to2/1" />
    <trip id="439" depart="4.39" from="0/3to0/2" to="2/2to3/2" />
    <trip id="440" depart="4.40" from="4/2to4/3" to="1/0to2/0" />
    <trip id="441" depart="4.41" from="1/1to2/1" to="2/3to3/3" />
    <trip id="442" depart="4.42" from="3/4to2/4" to="1/3to2/3" />
    <trip id="443" depart="4.43" from="4/1to4/2" to="4/3to4/4" />
    <trip id="444" depart="4.44" from="2/0to1/0" to="3/4to2/4" />
    <trip id="445" depart="4.45" from="1/4to1/3" to="1/0to1/1" />