<?xml version="1.0" encoding="UTF-8"?>

<!-- generated on 07/19/13 13:58:15 by SUMO duarouter Version 0.17.1
<?xml version="1.0" encoding="UTF-8"?>

<configuration xmlns:xsi="http://www.w3.org/2001/XMLSchema-instance" xsi:noNamespaceSchemaLocation="http://sumo.sf.net/xsd/duarouterConfiguration.xsd">

    <input>
        <net-file value="input_net.net.xml"/>
        <trip-files value="trips.trips.xml"/>
    </input>

    <output>
        <output-file value="routes.rou.xml"/>
    </output>

</configuration>
-->

<routes xmlns:xsi="http://www.w3.org/2001/XMLSchema-instance" xsi:noNamespaceSchemaLocation="http://sumo.sf.net/xsd/routes_file.xsd">
    <vehicle id="0" depart="0.00" departLane="best">
       <route edges="0/2to1/2"/>
    </vehicle>
    <vehicle id="1" depart="0.00" departLane="best">
       <route edges="0/2to1/2"/>
    </vehicle>
    <vehicle id="2" depart="0.00" departLane="best">
       <route edges="0/2to1/2"/>
    </vehicle>
    <vehicle id="3" depart="0.00" departLane="best">
       <route edges="0/1to1/1 1/1to1/2 1/2to2/2 2/2to3/2"/>
    </vehicle>
	<vehicle id="4" depart="0.00" departLane="best">
       <route edges="0/2to1/2"/>
    </vehicle>
    <vehicle id="5" depart="0.00" departLane="best">
       <route edges="3/2to3/1 3/1to2/1 2/1to1/1 1/1to0/1"/>
    </vehicle>
    <vehicle id="6" depart="0.00" departLane="best">
       <route edges="3/1to2/1"/>
    </vehicle>
    <vehicle id="7" depart="0.00" departLane="best">
       <route edges="3/2to2/2"/>
    </vehicle>
	<vehicle id="8" depart="0.00" departLane="best">
       <route edges="1/0to1/1 1/1to1/2 1/2to1/3"/>
    </vehicle>
    <vehicle id="9" depart="0.00" departLane="best">
		<route edges="1/3to1/2 1/2to1/1 1/1to1/0"/>
    </vehicle>
	<vehicle id="10" depart="0.00" departLane="best">
       <route edges="0/2to1/2 1/2to2/2 2/2to3/2 3/2to3/1"/>
    </vehicle>
    <vehicle id="11" depart="0.00" departLane="best">
       <route edges="0/1to1/1 1/1to2/1 2/1to3/1 3/1to3/2"/>
    </vehicle>
    <vehicle id="12" depart="0.00" departLane="best">
       <route edges="0/2to1/2 1/2to1/1 1/1to2/1 2/1to3/1"/>
    </vehicle>
    <vehicle id="13" depart="0.00" departLane="best">
       <route edges="0/1to1/1 1/1to1/2 1/2to2/2 2/2to3/2"/>
    </vehicle>
	<vehicle id="14" depart="0.00" departLane="best">
       <route edges="3/1to3/2 3/2to2/2 2/2to1/2 1/2to0/2"/>
    </vehicle>
    <vehicle id="15" depart="0.00" departLane="best">
       <route edges="3/2to3/1 3/1to2/1 2/1to1/1 1/1to0/1"/>
    </vehicle>
    <vehicle id="16" depart="0.00" departLane="best">
       <route edges="3/1to2/1 2/1to1/1 1/1to1/2 1/2to0/2"/>
    </vehicle>
    <vehicle id="17" depart="0.00" departLane="best">
       <route edges="3/2to2/2 2/2to1/2 1/2to1/1 1/1to0/1"/>
    </vehicle>
	<vehicle id="18" depart="0.00" departLane="best">
       <route edges="1/0to1/1 1/1to1/2 1/2to1/3"/>
    </vehicle>
    <vehicle id="19" depart="0.00" departLane="best">
       <route edges="1/3to1/2 1/2to1/1 1/1to1/0"/>
    </vehicle>
	<vehicle id="20" depart="0.00" departLane="best">
       <route edges="0/2to1/2 1/2to2/2 2/2to3/2 3/2to3/1"/>
    </vehicle>
    <vehicle id="21" depart="0.00" departLane="best">
       <route edges="0/1to1/1 1/1to2/1 2/1to3/1 3/1to3/2"/>
    </vehicle>
    <vehicle id="22" depart="0.00" departLane="best">
       <route edges="0/2to1/2 1/2to1/1 1/1to2/1 2/1to3/1"/>
    </vehicle>
    <vehicle id="23" depart="0.00" departLane="best">
       <route edges="0/1to1/1 1/1to1/2 1/2to2/2 2/2to3/2"/>
    </vehicle>
	<vehicle id="24" depart="0.00" departLane="best">
       <route edges="3/1to3/2 3/2to2/2 2/2to1/2 1/2to0/2"/>
    </vehicle>
    <vehicle id="25" depart="0.00" departLane="best">
       <route edges="3/2to3/1 3/1to2/1 2/1to1/1 1/1to0/1"/>
    </vehicle>
    <vehicle id="26" depart="0.00" departLane="best">
       <route edges="3/1to2/1 2/1to1/1 1/1to1/2 1/2to0/2"/>
    </vehicle>
    <vehicle id="27" depart="0.00" departLane="best">
       <route edges="3/2to2/2 2/2to1/2 1/2to1/1 1/1to0/1"/>
    </vehicle>
	<vehicle id="28" depart="0.00" departLane="best">
       <route edges="1/0to1/1 1/1to1/2 1/2to1/3"/>
    </vehicle>
    <vehicle id="29" depart="0.00" departLane="best">
       <route edges="1/3to1/2 1/2to1/1 1/1to1/0"/>
    </vehicle>
	<vehicle id="30" depart="0.00" departLane="best">
       <route edges="0/2to1/2 1/2to2/2 2/2to3/2 3/2to3/1"/>
    </vehicle>
    <vehicle id="31" depart="0.00" departLane="best">
       <route edges="0/1to1/1 1/1to2/1 2/1to3/1 3/1to3/2"/>
    </vehicle>
    <vehicle id="32" depart="0.00" departLane="best">
       <route edges="0/2to1/2 1/2to1/1 1/1to2/1 2/1to3/1"/>
    </vehicle>
    <vehicle id="33" depart="0.00" departLane="best">
       <route edges="0/1to1/1 1/1to1/2 1/2to2/2 2/2to3/2"/>
    </vehicle>
	<vehicle id="34" depart="0.00" departLane="best">
       <route edges="3/1to3/2 3/2to2/2 2/2to1/2 1/2to0/2"/>
    </vehicle>
    <vehicle id="35" depart="0.00" departLane="best">
       <route edges="3/2to3/1 3/1to2/1 2/1to1/1 1/1to0/1"/>
    </vehicle>
    <vehicle id="36" depart="0.00" departLane="best">
       <route edges="3/1to2/1 2/1to1/1 1/1to1/2 1/2to0/2"/>
    </vehicle>
    <vehicle id="37" depart="0.00" departLane="best">
       <route edges="3/2to2/2 2/2to1/2 1/2to1/1 1/1to0/1"/>
    </vehicle>
	<vehicle id="38" depart="0.00" departLane="best">
       <route edges="1/0to1/1 1/1to1/2 1/2to1/3"/>
    </vehicle>
    <vehicle id="39" depart="0.00" departLane="best">
       <route edges="1/3to1/2 1/2to1/1 1/1to1/0"/>
    </vehicle>
	<vehicle id="40" depart="0.00" departLane="best">
       <route edges="0/2to1/2 1/2to2/2 2/2to3/2 3/2to3/1"/>
    </vehicle>
    <vehicle id="41" depart="0.00" departLane="best">
       <route edges="0/1to1/1 1/1to2/1 2/1to3/1 3/1to3/2"/>
    </vehicle>
    <vehicle id="42" depart="0.00" departLane="best">
       <route edges="0/2to1/2 1/2to1/1 1/1to2/1 2/1to3/1"/>
    </vehicle>
    <vehicle id="43" depart="0.00" departLane="best">
       <route edges="0/1to1/1 1/1to1/2 1/2to2/2 2/2to3/2"/>
    </vehicle>
	<vehicle id="44" depart="0.00" departLane="best">
       <route edges="3/1to3/2 3/2to2/2 2/2to1/2 1/2to0/2"/>
    </vehicle>
    <vehicle id="45" depart="0.00" departLane="best">
       <route edges="3/2to3/1 3/1to2/1 2/1to1/1 1/1to0/1"/>
    </vehicle>
    <vehicle id="46" depart="0.00" departLane="best">
       <route edges="3/1to2/1 2/1to1/1 1/1to1/2 1/2to0/2"/>
    </vehicle>
    <vehicle id="47" depart="0.00" departLane="best">
       <route edges="3/2to2/2 2/2to1/2 1/2to1/1 1/1to0/1"/>
    </vehicle>
	<vehicle id="48" depart="0.00" departLane="best">
       <route edges="1/0to1/1 1/1to1/2 1/2to1/3"/>
    </vehicle>
    <vehicle id="49" depart="0.00" departLane="best">
       <route edges="1/3to1/2 1/2to1/1 1/1to1/0"/>
    </vehicle>
	<vehicle id="50" depart="0.00" departLane="best">
       <route edges="0/2to1/2 1/2to2/2 2/2to3/2 3/2to3/1"/>
    </vehicle>
	<vehicle id="51" depart="0.00" departLane="best">
       <route edges="3/2to2/2 2/2to1/2 1/2to1/1 1/1to0/1"/>
    </vehicle>
	<vehicle id="52" depart="0.00" departLane="best">
       <route edges="3/1to3/2 3/2to2/2 2/2to1/2 1/2to0/2"/>
    </vehicle>
</routes>
