<?xml version="1.0" encoding="UTF-8"?>

<!-- generated on 02/22/17 12:35:01 by SUMO netconvert Version 0.24.0
<?xml version="1.0" encoding="UTF-8"?>

<configuration xmlns:xsi="http://www.w3.org/2001/XMLSchema-instance" xsi:noNamespaceSchemaLocation="http://sumo.dlr.de/xsd/netconvertConfiguration.xsd">

    <input>
        <type-files value="F:\sumo-win32-0.24.0\sumo-0.24.0\/data/typemap/osmNetconvert.typ.xml"/>
        <osm-files value="zhujiangxincheng.osm"/>
    </input>

    <output>
        <output-file value="zhujiangxincheng.net.xml"/>
    </output>

    <projection>
        <proj.utm value="true"/>
    </projection>

</configuration>
-->

<net version="0.13" xmlns:xsi="http://www.w3.org/2001/XMLSchema-instance" xsi:noNamespaceSchemaLocation="http://sumo.dlr.de/xsd/net_file.xsd">

    <location netOffset="-728220.86,-2538637.28" convBoundary="0.00,0.00,24227.09,51199.45" origBoundary="113.227955,22.938203,113.464749,23.401451" projParameter="+proj=utm +zone=49 +ellps=WGS84 +datum=WGS84 +units=m +no_defs"/>

    <type id="highway.bridleway" priority="1" numLanes="1" speed="2.78" allow="pedestrian" oneway="1" width="2.00"/>
    <type id="highway.bus_guideway" priority="1" numLanes="1" speed="8.33" allow="bus" oneway="1"/>
    <type id="highway.cycleway" priority="1" numLanes="1" speed="5.56" allow="bicycle" oneway="0" width="1.00"/>
    <type id="highway.footway" priority="1" numLanes="1" speed="8.33" allow="pedestrian" oneway="1" width="2.00"/>
    <type id="highway.ford" priority="1" numLanes="1" speed="2.78" allow="army" oneway="0"/>
    <type id="highway.living_street" priority="3" numLanes="1" speed="2.78" disallow="tram rail_urban rail rail_electric ship" oneway="0"/>
    <type id="highway.motorway" priority="13" numLanes="2" speed="44.44" allow="private emergency authority army vip passenger hov taxi bus coach delivery truck trailer motorcycle evehicle custom1 custom2" oneway="1"/>
    <type id="highway.motorway_link" priority="12" numLanes="1" speed="22.22" allow="private emergency authority army vip passenger hov taxi bus coach delivery truck trailer motorcycle evehicle custom1 custom2" oneway="1"/>
    <type id="highway.path" priority="1" numLanes="1" speed="2.78" allow="bicycle pedestrian" oneway="1" width="2.00"/>
    <type id="highway.pedestrian" priority="1" numLanes="1" speed="8.33" allow="pedestrian" oneway="1" width="2.00"/>
    <type id="highway.primary" priority="9" numLanes="2" speed="27.78" disallow="tram rail_urban rail rail_electric ship" oneway="0"/>
    <type id="highway.primary_link" priority="8" numLanes="1" speed="22.22" disallow="tram rail_urban rail rail_electric ship" oneway="0"/>
    <type id="highway.raceway" priority="14" numLanes="2" speed="83.33" allow="vip" oneway="0"/>
    <type id="highway.residential" priority="4" numLanes="1" speed="13.89" disallow="tram rail_urban rail rail_electric ship" oneway="0"/>
    <type id="highway.secondary" priority="7" numLanes="2" speed="27.78" disallow="tram rail_urban rail rail_electric ship" oneway="0"/>
    <type id="highway.secondary_link" priority="6" numLanes="1" speed="22.22" disallow="tram rail_urban rail rail_electric ship" oneway="0"/>
    <type id="highway.service" priority="2" numLanes="1" speed="5.56" allow="delivery bicycle pedestrian" oneway="0"/>
    <type id="highway.services" priority="1" numLanes="1" speed="8.33" disallow="tram rail_urban rail rail_electric ship" oneway="0"/>
    <type id="highway.stairs" priority="1" numLanes="1" speed="1.39" allow="pedestrian" oneway="1" width="2.00"/>
    <type id="highway.step" priority="1" numLanes="1" speed="1.39" allow="pedestrian" oneway="1" width="2.00"/>
    <type id="highway.steps" priority="1" numLanes="1" speed="1.39" allow="pedestrian" oneway="1" width="2.00"/>
    <type id="highway.tertiary" priority="6" numLanes="1" speed="22.22" disallow="tram rail_urban rail rail_electric ship" oneway="0"/>
    <type id="highway.tertiary_link" priority="5" numLanes="1" speed="22.22" disallow="tram rail_urban rail rail_electric ship" oneway="0"/>
    <type id="highway.track" priority="1" numLanes="1" speed="5.56" disallow="tram rail_urban rail rail_electric ship" oneway="0"/>
    <type id="highway.trunk" priority="11" numLanes="2" speed="27.78" disallow="tram rail_urban rail rail_electric bicycle pedestrian ship" oneway="0"/>
    <type id="highway.trunk_link" priority="10" numLanes="1" speed="22.22" disallow="tram rail_urban rail rail_electric bicycle pedestrian ship" oneway="0"/>
    <type id="highway.unclassified" priority="5" numLanes="1" speed="13.89" disallow="tram rail_urban rail rail_electric ship" oneway="0"/>
    <type id="highway.unsurfaced" priority="1" numLanes="1" speed="8.33" disallow="tram rail_urban rail rail_electric ship" oneway="0"/>
    <type id="railway.light_rail" priority="15" numLanes="1" speed="27.78" allow="rail_urban" oneway="1"/>
    <type id="railway.preserved" priority="15" numLanes="1" speed="27.78" allow="rail" oneway="1"/>
    <type id="railway.rail" priority="15" numLanes="1" speed="83.33" allow="rail rail_electric" oneway="1"/>
    <type id="railway.subway" priority="15" numLanes="1" speed="27.78" allow="rail_urban" oneway="1"/>
    <type id="railway.tram" priority="15" numLanes="1" speed="13.89" allow="tram" oneway="1"/>

    <edge id=":1040805420_0" function="internal">
        <lane id=":1040805420_0_0" index="0" disallow="tram rail_urban rail rail_electric ship" speed="13.89" length="5.22" shape="9927.86,22018.48 9926.49,22018.64 9925.50,22019.24 9924.89,22020.27 9924.66,22021.74"/>
    </edge>
    <edge id=":1040805420_1" function="internal">
        <lane id=":1040805420_1_0" index="0" disallow="tram rail_urban rail rail_electric ship" speed="13.89" length="9.66" shape="9927.86,22018.48 9918.20,22018.61"/>
    </edge>
    <edge id=":1040805420_2" function="internal">
        <lane id=":1040805420_2_0" index="0" disallow="tram rail_urban rail rail_electric ship" speed="13.89" length="2.41" shape="9927.86,22018.48 9926.65,22017.61 9926.27,22016.77"/>
    </edge>
    <edge id=":1040805420_9" function="internal">
        <lane id=":1040805420_9_0" index="0" speed="13.89" length="2.41" shape="9926.27,22016.77 9926.71,22015.96 9927.98,22015.18"/>
    </edge>
    <edge id=":1040805420_3" function="internal">
        <lane id=":1040805420_3_0" index="0" disallow="tram rail_urban rail rail_electric ship" speed="13.89" length="9.98" shape="9918.00,22015.31 9927.98,22015.18"/>
    </edge>
    <edge id=":1040805420_4" function="internal">
        <lane id=":1040805420_4_0" index="0" disallow="tram rail_urban rail rail_electric ship" speed="13.89" length="5.65" shape="9918.00,22015.31 9920.98,22015.56 9923.08,22016.71 9923.21,22016.94"/>
    </edge>
    <edge id=":1040805420_5" function="internal">
        <lane id=":1040805420_5_0" index="0" disallow="tram rail_urban rail rail_electric ship" speed="13.89" length="2.55" shape="9918.00,22015.31 9919.29,22016.06 9919.75,22016.86 9919.69,22016.99"/>
    </edge>
    <edge id=":1040805420_10" function="internal">
        <lane id=":1040805420_10_0" index="0" speed="13.89" length="5.12" shape="9923.21,22016.94 9924.30,22018.77 9924.66,22021.74"/>
    </edge>
    <edge id=":1040805420_11" function="internal">
        <lane id=":1040805420_11_0" index="0" speed="13.89" length="2.27" shape="9919.69,22016.99 9919.39,22017.71 9918.20,22018.61"/>
    </edge>
    <edge id=":1040805420_6" function="internal">
        <lane id=":1040805420_6_0" index="0" disallow="tram rail_urban rail rail_electric ship" speed="13.89" length="5.11" shape="9921.36,22021.65 9921.19,22020.25 9920.61,22019.27 9919.61,22018.72 9918.20,22018.61"/>
    </edge>
    <edge id=":1040805420_7" function="internal">
        <lane id=":1040805420_7_0" index="0" disallow="tram rail_urban rail rail_electric ship" speed="13.89" length="10.59" shape="9921.36,22021.65 9921.83,22018.73 9923.10,22016.68 9925.15,22015.50 9927.98,22015.18"/>
    </edge>
    <edge id=":1040805420_8" function="internal">
        <lane id=":1040805420_8_0" index="0" disallow="tram rail_urban rail rail_electric ship" speed="13.89" length="4.82" shape="9921.36,22021.65 9922.21,22020.44 9923.05,22020.04 9923.86,22020.48 9924.66,22021.74"/>
    </edge>
    <edge id=":1040805423_0" function="internal">
        <lane id=":1040805423_0_0" index="0" disallow="tram rail_urban rail rail_electric ship" speed="13.89" length="9.50" shape="9921.94,22250.97 9912.44,22250.73"/>
    </edge>
    <edge id=":1040805423_1" function="internal">
        <lane id=":1040805423_1_0" index="0" disallow="tram rail_urban rail rail_electric ship" speed="13.89" length="7.85" shape="9921.94,22250.97 9919.15,22250.71 9917.16,22250.08 9915.99,22249.08 9915.62,22247.71"/>
    </edge>
    <edge id=":1040805423_2" function="internal">
        <lane id=":1040805423_2_0" index="0" disallow="tram rail_urban rail rail_electric ship" speed="13.89" length="1.11" shape="9918.92,22247.79 9918.58,22248.85"/>
    </edge>
    <edge id=":1040805423_3" function="internal">
        <lane id=":1040805423_3_0" index="0" disallow="tram rail_urban rail rail_electric ship" speed="13.89" length="1.16" shape="9918.92,22247.79 9918.25,22248.74"/>
    </edge>
    <edge id=":1040805423_4" function="internal">
        <lane id=":1040805423_4_0" index="0" speed="13.89" length="6.74" shape="9918.58,22248.85 9918.49,22249.14 9917.26,22250.08 9915.25,22250.61 9912.44,22250.73"/>
    </edge>
    <edge id=":1040805423_5" function="internal">
        <lane id=":1040805423_5_0" index="0" speed="13.89" length="3.65" shape="9918.25,22248.74 9918.07,22249.01 9917.23,22249.40 9916.42,22248.97 9915.62,22247.71"/>
    </edge>
    <edge id=":1040805431_0" function="internal">
        <lane id=":1040805431_0_0" index="0" disallow="tram rail_urban rail rail_electric ship" speed="22.22" length="0.10" shape="10166.60,21639.21 10166.53,21639.21"/>
    </edge>
    <edge id=":1040805431_1" function="internal">
        <lane id=":1040805431_1_0" index="0" disallow="tram rail_urban rail rail_electric ship" speed="22.22" length="2.40" shape="10166.60,21639.21 10165.39,21638.35 10165.01,21637.51"/>
    </edge>
    <edge id=":1040805431_4" function="internal">
        <lane id=":1040805431_4_0" index="0" speed="22.22" length="2.40" shape="10165.01,21637.51 10165.45,21636.70 10166.70,21635.92"/>
    </edge>
    <edge id=":1040805431_2" function="internal">
        <lane id=":1040805431_2_0" index="0" disallow="tram rail_urban rail rail_electric ship" speed="22.22" length="0.27" shape="10166.43,21635.91 10166.70,21635.92"/>
    </edge>
    <edge id=":1040805431_3" function="internal">
        <lane id=":1040805431_3_0" index="0" disallow="tram rail_urban rail rail_electric ship" speed="22.22" length="2.41" shape="10166.43,21635.91 10167.69,21636.70 10168.13,21637.51"/>
    </edge>
    <edge id=":1040805431_5" function="internal">
        <lane id=":1040805431_5_0" index="0" speed="22.22" length="2.41" shape="10168.13,21637.51 10167.74,21638.35 10166.53,21639.21"/>
    </edge>
    <edge id=":1040805442_0" function="internal">
        <lane id=":1040805442_0_0" index="0" disallow="tram rail_urban rail rail_electric ship" speed="22.22" length="9.44" shape="10305.43,21435.05 10295.99,21434.93"/>
    </edge>
    <edge id=":1040805442_1" function="internal">
        <lane id=":1040805442_1_0" index="0" disallow="tram rail_urban rail rail_electric ship" speed="18.06" length="4.96" shape="10305.43,21435.05 10302.83,21434.59 10300.88,21433.32"/>
    </edge>
    <edge id=":1040805442_2" function="internal">
        <lane id=":1040805442_2_0" index="0" disallow="tram rail_urban rail rail_electric ship" speed="22.22" length="2.41" shape="10305.43,21435.05 10304.21,21434.20 10303.82,21433.37"/>
    </edge>
    <edge id=":1040805442_9" function="internal">
        <lane id=":1040805442_9_0" index="0" speed="18.06" length="5.36" shape="10300.88,21433.32 10299.59,21431.26 10298.96,21428.40"/>
    </edge>
    <edge id=":1040805442_10" function="internal">
        <lane id=":1040805442_10_0" index="0" speed="22.22" length="2.41" shape="10303.82,21433.37 10304.25,21432.55 10305.50,21431.75"/>
    </edge>
    <edge id=":1040805442_3" function="internal">
        <lane id=":1040805442_3_0" index="0" disallow="tram rail_urban rail rail_electric ship" speed="18.06" length="5.45" shape="10302.25,21428.09 10302.58,21429.67 10303.23,21430.80 10304.20,21431.50 10305.50,21431.75"/>
    </edge>
    <edge id=":1040805442_4" function="internal">
        <lane id=":1040805442_4_0" index="0" disallow="tram rail_urban rail rail_electric ship" speed="18.06" length="10.82" shape="10302.25,21428.09 10302.10,21431.09 10301.00,21433.23 10298.97,21434.51 10295.99,21434.93"/>
    </edge>
    <edge id=":1040805442_5" function="internal">
        <lane id=":1040805442_5_0" index="0" disallow="tram rail_urban rail rail_electric ship" speed="13.89" length="4.82" shape="10302.25,21428.09 10301.54,21429.40 10300.76,21429.89 10299.90,21429.55 10298.96,21428.40"/>
    </edge>
    <edge id=":1040805442_6" function="internal">
        <lane id=":1040805442_6_0" index="0" disallow="tram rail_urban rail rail_electric ship" speed="18.06" length="5.12" shape="10296.00,21431.63 10297.41,21431.44 10298.37,21430.83 10298.89,21429.82 10298.96,21428.40"/>
    </edge>
    <edge id=":1040805442_7" function="internal">
        <lane id=":1040805442_7_0" index="0" disallow="tram rail_urban rail rail_electric ship" speed="22.22" length="9.50" shape="10296.00,21431.63 10305.50,21431.75"/>
    </edge>
    <edge id=":1040805442_8" function="internal">
        <lane id=":1040805442_8_0" index="0" disallow="tram rail_urban rail rail_electric ship" speed="22.22" length="2.41" shape="10296.00,21431.63 10297.24,21432.46 10297.65,21433.29"/>
    </edge>
    <edge id=":1040805442_11" function="internal">
        <lane id=":1040805442_11_0" index="0" speed="22.22" length="2.41" shape="10297.65,21433.29 10297.23,21434.11 10295.99,21434.93"/>
    </edge>
    <edge id=":1040805453_0" function="internal">
        <lane id=":1040805453_0_0" index="0" disallow="tram rail_urban rail rail_electric ship" speed="18.06" length="4.99" shape="9147.74,21578.42 9147.92,21577.07 9148.48,21576.09 9149.44,21575.48 9150.78,21575.25"/>
    </edge>
    <edge id=":1040805453_1" function="internal">
        <lane id=":1040805453_1_0" index="0" disallow="tram rail_urban rail rail_electric ship" speed="18.06" length="7.81" shape="9147.74,21578.42 9147.89,21575.63 9148.44,21573.62 9149.37,21572.40 9150.70,21571.96"/>
    </edge>
    <edge id=":1040805453_2" function="internal">
        <lane id=":1040805453_2_0" index="0" disallow="tram rail_urban rail rail_electric ship" speed="22.22" length="0.10" shape="9150.78,21575.26 9150.78,21575.25"/>
    </edge>
    <edge id=":1040805453_3" function="internal">
        <lane id=":1040805453_3_0" index="0" disallow="tram rail_urban rail rail_electric ship" speed="22.22" length="4.82" shape="9150.78,21575.26 9149.52,21574.47 9149.09,21573.66 9149.48,21572.82 9150.70,21571.96"/>
    </edge>
    <edge id=":1040805453_4" function="internal">
        <lane id=":1040805453_4_0" index="0" allow="rail_urban" speed="27.78" length="6.18" shape="9150.74,21573.46 9144.56,21573.77"/>
    </edge>
    <edge id=":1040805453_5" function="internal">
        <lane id=":1040805453_5_0" index="0" disallow="tram rail_urban rail rail_electric ship" speed="22.22" length="6.18" shape="9144.52,21572.13 9150.70,21571.96"/>
    </edge>
    <edge id=":1040805453_6" function="internal">
        <lane id=":1040805453_6_0" index="0" disallow="tram rail_urban rail rail_electric ship" speed="22.22" length="6.76" shape="9144.52,21572.13 9147.25,21570.57 9149.21,21570.56 9150.20,21571.88"/>
    </edge>
    <edge id=":1040805453_7" function="internal">
        <lane id=":1040805453_7_0" index="0" speed="22.22" length="3.45" shape="9150.20,21571.88 9150.38,21572.12 9150.78,21575.25"/>
    </edge>
    <edge id=":1040805461_0" function="internal">
        <lane id=":1040805461_0_0" index="0" disallow="tram rail_urban rail rail_electric ship" speed="22.22" length="5.03" shape="9390.72,21567.31 9389.36,21567.52 9388.40,21568.12 9387.84,21569.11 9387.67,21570.49"/>
    </edge>
    <edge id=":1040805461_1" function="internal">
        <lane id=":1040805461_1_0" index="0" disallow="tram rail_urban rail rail_electric ship" speed="22.22" length="6.26" shape="9390.72,21567.31 9384.46,21567.50"/>
    </edge>
    <edge id=":1040805461_2" function="internal">
        <lane id=":1040805461_2_0" index="0" disallow="tram rail_urban rail rail_electric ship" speed="22.22" length="2.41" shape="9390.72,21567.31 9389.47,21566.50 9389.04,21565.68"/>
    </edge>
    <edge id=":1040805461_6" function="internal">
        <lane id=":1040805461_6_0" index="0" speed="22.22" length="2.41" shape="9389.04,21565.68 9389.45,21564.85 9390.67,21564.01"/>
    </edge>
    <edge id=":1040805461_3" function="internal">
        <lane id=":1040805461_3_0" index="0" disallow="tram rail_urban rail rail_electric ship" speed="22.22" length="6.38" shape="9384.30,21564.21 9390.67,21564.01"/>
    </edge>
    <edge id=":1040805461_4" function="internal">
        <lane id=":1040805461_4_0" index="0" disallow="tram rail_urban rail rail_electric ship" speed="22.22" length="3.15" shape="9384.30,21564.21 9385.72,21564.54 9386.76,21565.70 9386.80,21565.83"/>
    </edge>
    <edge id=":1040805461_5" function="internal">
        <lane id=":1040805461_5_0" index="0" disallow="tram rail_urban rail rail_electric ship" speed="22.22" length="2.41" shape="9384.30,21564.21 9385.58,21564.97 9386.03,21565.77"/>
    </edge>
    <edge id=":1040805461_7" function="internal">
        <lane id=":1040805461_7_0" index="0" speed="22.22" length="4.77" shape="9386.80,21565.83 9387.41,21567.68 9387.67,21570.49"/>
    </edge>
    <edge id=":1040805461_8" function="internal">
        <lane id=":1040805461_8_0" index="0" speed="22.22" length="2.41" shape="9386.03,21565.77 9385.66,21566.62 9384.46,21567.50"/>
    </edge>
    <edge id=":1040805479_0" function="internal">
        <lane id=":1040805479_0_0" index="0" disallow="tram rail_urban rail rail_electric ship" speed="13.89" length="5.20" shape="9761.56,22016.46 9760.21,22016.64 9759.22,22017.24 9758.59,22018.27 9758.33,22019.72"/>
    </edge>
    <edge id=":1040805479_1" function="internal">
        <lane id=":1040805479_1_0" index="0" disallow="tram rail_urban rail rail_electric ship" speed="13.89" length="9.56" shape="9761.56,22016.46 9752.00,22016.38"/>
    </edge>
    <edge id=":1040805479_2" function="internal">
        <lane id=":1040805479_2_0" index="0" disallow="tram rail_urban rail rail_electric ship" speed="13.89" length="5.11" shape="9761.56,22016.46 9758.82,22016.00 9756.85,22014.77"/>
    </edge>
    <edge id=":1040805479_3" function="internal">
        <lane id=":1040805479_3_0" index="0" disallow="tram rail_urban rail rail_electric ship" speed="13.89" length="2.41" shape="9761.56,22016.46 9760.34,22015.61 9759.95,22014.78"/>
    </edge>
    <edge id=":1040805479_16" function="internal">
        <lane id=":1040805479_16_0" index="0" speed="13.89" length="5.15" shape="9756.85,22014.77 9755.67,22012.76 9755.26,22009.97"/>
    </edge>
    <edge id=":1040805479_17" function="internal">
        <lane id=":1040805479_17_0" index="0" speed="13.89" length="2.41" shape="9759.95,22014.78 9760.38,22013.96 9761.63,22013.16"/>
    </edge>
    <edge id=":1040805479_4" function="internal">
        <lane id=":1040805479_4_0" index="0" disallow="tram rail_urban rail rail_electric ship" speed="13.89" length="5.03" shape="9758.56,22009.96 9758.76,22011.33 9759.34,22012.33 9760.29,22012.94 9761.63,22013.16"/>
    </edge>
    <edge id=":1040805479_5" function="internal">
        <lane id=":1040805479_5_0" index="0" disallow="tram rail_urban rail rail_electric ship" speed="13.89" length="9.77" shape="9758.56,22009.96 9758.33,22019.72"/>
    </edge>
    <edge id=":1040805479_6" function="internal">
        <lane id=":1040805479_6_0" index="0" disallow="tram rail_urban rail rail_electric ship" speed="13.89" length="10.47" shape="9758.56,22009.96 9758.16,22012.76 9756.93,22014.76 9754.88,22015.97 9752.00,22016.38"/>
    </edge>
    <edge id=":1040805479_7" function="internal">
        <lane id=":1040805479_7_0" index="0" disallow="tram rail_urban rail rail_electric ship" speed="13.89" length="4.82" shape="9758.56,22009.96 9757.74,22011.20 9756.92,22011.61 9756.09,22011.20 9755.26,22009.97"/>
    </edge>
    <edge id=":1040805479_8" function="internal">
        <lane id=":1040805479_8_0" index="0" disallow="tram rail_urban rail rail_electric ship" speed="13.89" length="5.15" shape="9751.99,22013.08 9753.42,22012.88 9754.45,22012.30 9755.06,22011.33 9755.26,22009.97"/>
    </edge>
    <edge id=":1040805479_9" function="internal">
        <lane id=":1040805479_9_0" index="0" disallow="tram rail_urban rail rail_electric ship" speed="13.89" length="9.65" shape="9751.99,22013.08 9761.63,22013.16"/>
    </edge>
    <edge id=":1040805479_10" function="internal">
        <lane id=":1040805479_10_0" index="0" disallow="tram rail_urban rail rail_electric ship" speed="13.89" length="5.41" shape="9751.99,22013.08 9754.89,22013.49 9756.91,22014.73 9756.96,22014.82"/>
    </edge>
    <edge id=":1040805479_11" function="internal">
        <lane id=":1040805479_11_0" index="0" disallow="tram rail_urban rail rail_electric ship" speed="13.89" length="2.41" shape="9751.99,22013.08 9753.23,22013.90 9753.65,22014.73"/>
    </edge>
    <edge id=":1040805479_18" function="internal">
        <lane id=":1040805479_18_0" index="0" speed="13.89" length="5.19" shape="9756.96,22014.82 9758.06,22016.81 9758.33,22019.72"/>
    </edge>
    <edge id=":1040805479_19" function="internal">
        <lane id=":1040805479_19_0" index="0" speed="13.89" length="2.41" shape="9753.65,22014.73 9753.24,22015.55 9752.00,22016.38"/>
    </edge>
    <edge id=":1040805479_12" function="internal">
        <lane id=":1040805479_12_0" index="0" disallow="tram rail_urban rail rail_electric ship" speed="13.89" length="5.07" shape="9755.03,22019.56 9754.90,22018.16 9754.36,22017.17 9753.39,22016.58 9752.00,22016.38"/>
    </edge>
    <edge id=":1040805479_13" function="internal">
        <lane id=":1040805479_13_0" index="0" disallow="tram rail_urban rail rail_electric ship" speed="13.89" length="9.59" shape="9755.03,22019.56 9755.26,22009.97"/>
    </edge>
    <edge id=":1040805479_14" function="internal">
        <lane id=":1040805479_14_0" index="0" disallow="tram rail_urban rail rail_electric ship" speed="13.89" length="10.41" shape="9755.03,22019.56 9755.57,22016.71 9756.85,22014.69 9758.87,22013.51 9761.63,22013.16"/>
    </edge>
    <edge id=":1040805479_15" function="internal">
        <lane id=":1040805479_15_0" index="0" disallow="tram rail_urban rail rail_electric ship" speed="13.89" length="4.82" shape="9755.03,22019.56 9755.92,22018.36 9756.76,22017.99 9757.57,22018.45 9758.33,22019.72"/>
    </edge>
    <edge id=":1040805480_0" function="internal">
        <lane id=":1040805480_0_0" index="0" disallow="tram rail_urban rail rail_electric ship" speed="20.84" length="5.03" shape="9754.69,21852.44 9754.49,21851.07 9753.91,21850.09 9752.94,21849.50 9751.58,21849.30"/>
    </edge>
    <edge id=":1040805480_1" function="internal">
        <lane id=":1040805480_1_0" index="0" disallow="tram rail_urban rail rail_electric ship" speed="13.89" length="4.82" shape="9754.69,21852.44 9755.51,21851.20 9756.34,21850.79 9757.16,21851.20 9757.99,21852.43"/>
    </edge>
    <edge id=":1040805480_2" function="internal">
        <lane id=":1040805480_2_0" index="0" disallow="tram rail_urban rail rail_electric ship" speed="20.84" length="5.01" shape="9761.10,21849.34 9759.74,21849.52 9758.76,21850.10 9758.18,21851.07 9757.99,21852.43"/>
    </edge>
    <edge id=":1040805480_3" function="internal">
        <lane id=":1040805480_3_0" index="0" disallow="tram rail_urban rail rail_electric ship" speed="27.78" length="9.53" shape="9761.10,21849.34 9751.58,21849.30"/>
        <lane id=":1040805480_3_1" index="1" disallow="tram rail_urban rail rail_electric ship" speed="27.78" length="9.53" shape="9761.13,21846.04 9751.58,21846.00"/>
    </edge>
    <edge id=":1040805481_0" function="internal">
        <lane id=":1040805481_0_0" index="0" disallow="tram rail_urban rail rail_electric ship" speed="13.89" length="9.90" shape="9908.30,22019.21 9898.40,22019.40"/>
    </edge>
    <edge id=":1040805481_1" function="internal">
        <lane id=":1040805481_1_0" index="0" disallow="tram rail_urban rail rail_electric ship" speed="13.89" length="5.56" shape="9908.30,22019.21 9905.40,22018.97 9903.32,22017.85 9903.16,22017.61"/>
    </edge>
    <edge id=":1040805481_2" function="internal">
        <lane id=":1040805481_2_0" index="0" disallow="tram rail_urban rail rail_electric ship" speed="13.89" length="2.54" shape="9908.30,22019.21 9907.01,22018.46 9906.55,22017.66 9906.60,22017.54"/>
    </edge>
    <edge id=":1040805481_9" function="internal">
        <lane id=":1040805481_9_0" index="0" speed="13.89" length="4.98" shape="9903.16,22017.61 9902.04,22015.86 9901.58,22013.00"/>
    </edge>
    <edge id=":1040805481_10" function="internal">
        <lane id=":1040805481_10_0" index="0" speed="13.89" length="2.28" shape="9906.60,22017.54 9906.91,22016.81 9908.10,22015.91"/>
    </edge>
    <edge id=":1040805481_3" function="internal">
        <lane id=":1040805481_3_0" index="0" disallow="tram rail_urban rail rail_electric ship" speed="13.89" length="5.05" shape="9904.88,22012.94 9905.10,22014.31 9905.71,22015.26 9906.71,22015.80 9908.10,22015.91"/>
    </edge>
    <edge id=":1040805481_4" function="internal">
        <lane id=":1040805481_4_0" index="0" disallow="tram rail_urban rail rail_electric ship" speed="13.89" length="10.53" shape="9904.88,22012.94 9904.52,22015.82 9903.32,22017.85 9901.28,22019.05 9898.40,22019.40"/>
    </edge>
    <edge id=":1040805481_5" function="internal">
        <lane id=":1040805481_5_0" index="0" disallow="tram rail_urban rail rail_electric ship" speed="13.89" length="4.82" shape="9904.88,22012.94 9904.07,22014.19 9903.26,22014.62 9902.42,22014.22 9901.58,22013.00"/>
    </edge>
    <edge id=":1040805481_6" function="internal">
        <lane id=":1040805481_6_0" index="0" disallow="tram rail_urban rail rail_electric ship" speed="13.89" length="5.05" shape="9898.47,22016.10 9899.85,22015.93 9900.83,22015.36 9901.40,22014.38 9901.58,22013.00"/>
    </edge>
    <edge id=":1040805481_7" function="internal">
        <lane id=":1040805481_7_0" index="0" disallow="tram rail_urban rail rail_electric ship" speed="13.89" length="9.63" shape="9898.47,22016.10 9908.10,22015.91"/>
    </edge>
    <edge id=":1040805481_8" function="internal">
        <lane id=":1040805481_8_0" index="0" disallow="tram rail_urban rail rail_electric ship" speed="13.89" length="2.41" shape="9898.47,22016.10 9899.69,22016.95 9900.09,22017.79"/>
    </edge>
    <edge id=":1040805481_11" function="internal">
        <lane id=":1040805481_11_0" index="0" speed="13.89" length="2.41" shape="9900.09,22017.79 9899.66,22018.60 9898.40,22019.40"/>
    </edge>
    <edge id=":1040805482_0" function="internal">
        <lane id=":1040805482_0_0" index="0" disallow="tram rail_urban rail rail_electric ship" speed="20.84" length="5.00" shape="9898.54,21852.62 9898.32,21851.27 9897.72,21850.31 9896.74,21849.74 9895.39,21849.57"/>
    </edge>
    <edge id=":1040805482_1" function="internal">
        <lane id=":1040805482_1_0" index="0" disallow="tram rail_urban rail rail_electric ship" speed="13.89" length="4.82" shape="9898.54,21852.62 9899.34,21851.36 9900.16,21850.94 9900.99,21851.33 9901.84,21852.55"/>
    </edge>
    <edge id=":1040805482_2" function="internal">
        <lane id=":1040805482_2_0" index="0" disallow="tram rail_urban rail rail_electric ship" speed="20.84" length="5.00" shape="9904.87,21849.37 9903.52,21849.60 9902.57,21850.21 9902.01,21851.19 9901.84,21852.55"/>
    </edge>
    <edge id=":1040805482_3" function="internal">
        <lane id=":1040805482_3_0" index="0" disallow="tram rail_urban rail rail_electric ship" speed="27.78" length="9.47" shape="9904.87,21849.37 9895.39,21849.57"/>
        <lane id=":1040805482_3_1" index="1" disallow="tram rail_urban rail rail_electric ship" speed="27.78" length="9.47" shape="9904.78,21846.07 9895.33,21846.27"/>
    </edge>
    <edge id=":1040805484_0" function="internal">
        <lane id=":1040805484_0_0" index="0" disallow="tram rail_urban rail rail_electric ship" speed="13.89" length="9.50" shape="9749.93,22245.78 9740.44,22245.41"/>
    </edge>
    <edge id=":1040805484_1" function="internal">
        <lane id=":1040805484_1_0" index="0" disallow="tram rail_urban rail rail_electric ship" speed="13.89" length="7.88" shape="9749.93,22245.78 9747.13,22245.47 9745.16,22244.80 9744.01,22243.77 9743.68,22242.38"/>
    </edge>
    <edge id=":1040805484_2" function="internal">
        <lane id=":1040805484_2_0" index="0" disallow="tram rail_urban rail rail_electric ship" speed="13.89" length="1.12" shape="9746.97,22242.54 9746.60,22243.60"/>
    </edge>
    <edge id=":1040805484_3" function="internal">
        <lane id=":1040805484_3_0" index="0" disallow="tram rail_urban rail rail_electric ship" speed="13.89" length="1.18" shape="9746.97,22242.54 9746.27,22243.49"/>
    </edge>
    <edge id=":1040805484_4" function="internal">
        <lane id=":1040805484_4_0" index="0" speed="13.89" length="6.74" shape="9746.60,22243.60 9746.50,22243.89 9745.26,22244.82 9743.24,22245.32 9740.44,22245.41"/>