<?xml version="1.0"?>
<trips>
    <trip id="0" depart="0.0" from="118265811" to="444232017#0" />
    <trip id="1" depart="0.05" from="442084730#0" to="118265810#0" />
    <trip id="2" depart="0.1" from="232795048" to="447215987#6" />
    <trip id="3" depart="0.15" from="-411044293" to="-429080720#1" />
    <trip id="4" depart="0.2" from="302857662#1" to="427564712#1" />
    <trip id="5" depart="0.25" from="-429011436#1" to="427774913#0" />
    <trip id="6" depart="0.3" from="442084736" to="199896075#2" />
    <trip id="7" depart="0.35" from="248284670" to="441943777" />
    <trip id="8" depart="0.4" from="454300885#3" to="-446269825" />
    <trip id="9" depart="0.45" from="-45838052#5" to="-29140969#2" />
    <trip id="10" depart="0.5" from="445078261#1" to="29165179" />
    <trip id="11" depart="0.55" from="440055729" to="453297326" />
    <trip id="12" depart="0.6" from="444351850#1" to="-444418076#0" />
    <trip id="13" depart="0.65" from="442084735" to="194344108#0" />
    <trip id="14" depart="0.7" from="457885320#3" to="184739533#1" />
    <trip id="15" depart="0.75" from="439895978#0" to="-427774899#1" />
    <trip id="16" depart="0.8" from="429011416" to="443972854" />
    <trip id="17" depart="0.85" from="429011420#4" to="429011441#4" />
    <trip id="18" depart="0.9" from="455096004#1" to="-429011430#2" />
    <trip id="19" depart="0.95" from="-439965012" to="-45838052#2" />
    <trip id="20" depart="1.0" from="440771230#1" to="440897383" />
    <trip id="21" depart="1.05" from="450920620" to="440881632#0" />
    <trip id="22" depart="1.1" from="444014976" to="302857648#1" />
    <trip id="23" depart="1.15" from="444418076#2" to="-439902716" />
    <trip id="24" depart="1.2" from="29141657#0" to="440038226" />
    <trip id="25" depart="1.25" from="29141094" to="439895973" />
    <trip id="26" depart="1.3" from="40016147#1" to="439895645" />
    <trip id="27" depart="1.35" from="240381910" to="453717289#0" />
    <trip id="28" depart="1.4" from="-429011430#6" to="-427564712#1" />
    <trip id="29" depart="1.45" from="444118069#1" to="322620773#1" />
    <trip id="30" depart="1.5" from="-146688868#3" to="-302857648#0" />
    <trip id="31" depart="1.55" from="-430038919" to="450614678#0" />
    <trip id="32" depart="1.6" from="440771228" to="427774912#1" />
    <trip id="33" depart="1.65" from="429011415#0" to="188246611#1" />
    <trip id="34" depart="1.7" from="444018069#0" to="439902328#2" />
    <trip id="35" depart="1.75" from="429011430#1" to="449070493#0" />
    <trip id="36" depart="1.8" from="429011415#5" to="427774913#1" />
    <trip id="37" depart="1.85" from="440037195" to="448282334" />
    <trip id="38" depart="1.9" from="-427564712#1" to="-442016955" />
    <trip id="39" depart="1.95" from="-303719968" to="442779565" />
    <trip id="40" depart="2.0" from="429011441#5" to="447226543#4" />
    <trip id="41" depart="2.05" from="-454300882" to="233809685" />
    <trip id="42" depart="2.1" from="429080720#1" to="118265810#0" />
    <trip id="43" depart="2.15" from="456382186#1" to="454300899#0" />
    <trip id="44" depart="2.2" from="454300896" to="443987641#1" />
    <trip id="45" depart="2.25" from="450614679" to="439897795#0" />
    <trip id="46" depart="2.3" from="461505919#1" to="443987643" />
    <trip id="47" depart="2.35" from="-45838048#1" to="454300899#2" />
    <trip id="48" depart="2.4" from="322620773#1" to="248407674#0" />
    <trip id="49" depart="2.45" from="443178672#0" to="457176636" />
    <trip id="50" depart="2.5" from="449683612" to="449862105" />
    <trip id="51" depart="2.55" from="440187415" to="-303719967#0" />
    <trip id="52" depart="2.6" from="429080702#3" to="322628974" />
    <trip id="53" depart="2.65" from="440769417" to="444400943" />
    <trip id="54" depart="2.7" from="-322620774#0" to="303475998#3" />
    <trip id="55" depart="2.75" from="439905478#2" to="118265794" />
    <trip id="56" depart="2.8" from="448790073#0" to="440057979" />
    <trip id="57" depart="2.85" from="-302857658#1" to="194339716" />
    <trip id="58" depart="2.9" from="455096004#2" to="440187411" />
    <trip id="59" depart="2.95" from="194339712" to="439895645" />
    <trip id="60" depart="3.0" from="-194443816#1" to="224934251#0" />
    <trip id="61" depart="3.05" from="427564710#2" to="442013842" />
    <trip id="62" depart="3.1" from="302857654" to="194344117" />
    <trip id="63" depart="3.15" from="439902328#3" to="194339716" />
    <trip id="64" depart="3.2" from="248407676" to="440769419" />
    <trip id="65" depart="3.25" from="-146688870#1" to="444018070" />
    <trip id="66" depart="3.3" from="421238583" to="233809682" />
    <trip id="67" depart="3.35" from="447215985" to="447215986" />
    <trip id="68" depart="3.4" from="194344105" to="449785723#1" />
    <trip id="69" depart="3.45" from="444418083" to="445178978" />
    <trip id="70" depart="3.5" from="444418080" to="439897795#2" />
    <trip id="71" depart="3.55" from="199898038#2" to="443159494" />
    <trip id="72" depart="3.6" from="-429011434" to="441997995#4" />
    <trip id="73" depart="3.65" from="-322620773#1" to="440040589" />
    <trip id="74" depart="3.7" from="-302857649#1" to="429011420#5" />
    <trip id="75" depart="3.75" from="440897382#1" to="-444118069#1" />
    <trip id="76" depart="3.8" from="440037195" to="243319591" />
    <trip id="77" depart="3.85" from="443987649" to="27318126#2" />
    <trip id="78" depart="3.9" from="440769430" to="-322629006#0" />
    <trip id="79" depart="3.95" from="80912591#1" to="442232085#0" />
    <trip id="80" depart="4.0" from="441997995#4" to="428729409#0" />
    <trip id="81" depart="4.05" from="429080720#3" to="-302857649#0" />
    <trip id="82" depart="4.1" from="440897781#2" to="-232602658#0" />
    <trip id="83" depart="4.15" from="-454300882" to="184740438#2" />
    <trip id="84" depart="4.2" from="441997995#0" to="456384920" />
    <trip id="85" depart="4.25" from="80912821#0" to="-429011422#1" />
    <trip id="86" depart="4.3" from="-322629006#0" to="334124302#2" />
    <trip id="87" depart="4.35" from="-302857648#0" to="440146106" />
    <trip id="88" depart="4.4" from="445078260" to="322620773#0" />
    <trip id="89" depart="4.45" from="440897030#0" to="-429011422#2" />
    <trip id="90" depart="4.5" from="-303475994" to="442016957#0" />
    <trip id="91" depart="4.55" from="440881469#3" to="440202873" />
    <trip id="92" depart="4.6" from="461165663" to="-429011429#0" />
    <trip id="93" depart="4.65" from="454300899#2" to="146688868#0" />
    <trip id="94" depart="4.7" from="453717286" to="440881185#1" />
    <trip id="95" depart="4.75" from="194344111" to="439895978#1" />
    <trip id="96" depart="4.8" from="-29140830#0" to="184740438#2" />
    <trip id="97" depart="4.85" from="445080100#0" to="429011441#0" />
    <trip id="98" depart="4.9" from="-302857659" to="429011445#2" />
    <trip id="99" depart="4.95" from="29140830#1" to="446269827#0" />
    <trip id="100" depart="5.0" from="445080100#2" to="429011432" />
    <trip id="101" depart="5.05" from="184739533#0" to="475301084" />
    <trip id="102" depart="5.1" from="-455096004#1" to="440187416#1" />
    <trip id="103" depart="5.15" from="462138644#2" to="439901406#2" />
    <trip id="104" depart="5.2" from="440769437" to="199898038#2" />
    <trip id="105" depart="5.25" from="427564712#0" to="194334826#4" />
    <trip id="106" depart="5.3" from="444418078" to="-427774900#1" />
    <trip id="107" depart="5.35" from="439895978#0" to="442779562" />
    <trip id="108" depart="5.4" from="442779565" to="29118093#4" />
    <trip id="109" depart="5.45" from="-302857662#0" to="29165238#1" />
    <trip id="110" depart="5.5" from="-306349107#0" to="199896075#1" />
    <trip id="111" depart="5.55" from="440037194" to="248282336#1" />
    <trip id="112" depart="5.6" from="-429080700#2" to="-429080715" />
    <trip id="113" depart="5.65" from="-427564710#0" to="444018069#0" />
    <trip id="114" depart="5.7" from="440044936#4" to="444232018#8" />
    <trip id="115" depart="5.75" from="444420600" to="443159494" />
    <trip id="116" depart="5.8" from="446148169" to="454300896" />
    <trip id="117" depart="5.85" from="-444111347#0" to="-427564710#1" />
    <trip id="118" depart="5.9" from="441997995#5" to="-427774913#0" />
    <trip id="119" depart="5.95" from="449070496" to="-429011436#3" />
    <trip id="120" depart="6.0" from="427774900#0" to="-429011429#2" />
    <trip id="121" depart="6.05" from="146688870#0" to="442084733#0" />
    <trip id="122" depart="6.1" from="456382186#0" to="-194339709#0" />
    <trip id="123" depart="6.15" from="-188246593" to="-429011433#1" />
    <trip id="124" depart="6.2" from="444232017#1" to="439965069#1" />
    <trip id="125" depart="6.25" from="460360353" to="443969225" />
    <trip id="126" depart="6.3" from="248407681" to="440881630" />
    <trip id="127" depart="6.35" from="444126141" to="-427774900#0" />
    <trip id="128" depart="6.4" from="-411044293" to="146688871" />
    <trip id="129" depart="6.45" from="-29140969#2" to="440881186#0" />
    <trip id="130" depart="6.5" from="445167429#1" to="456766132#2" />
    <trip id="131" depart="6.55" from="27318112#3" to="146688869" />
    <trip id="132" depart="6.6" from="-427774912#1" to="102596669" />
    <trip id="133" depart="6.65" from="443969221" to="442232087" />
    <trip id="134" depart="6.7" from="247429030#1" to="-89797642" />
    <trip id="135" depart="6.75" from="-429011430#5" to="449860493" />
    <trip id="136" depart="6.8" from="303475993#0" to="442016957#1" />
    <trip id="137" depart="6.85" from="89797650#1" to="440062730" />
    <trip id="138" depart="6.9" from="194334826#1" to="322629023" />
    <trip id="139" depart="6.95" from="445078261#0" to="444232018#6" />
    <trip id="140" depart="7.0" from="-199896074#1" to="-444111347#1" />
    <trip id="141" depart="7.05" from="461504894#2" to="444014979#0" />
    <trip id="142" depart="7.1" from="429011423" to="248407684#1" />
    <trip id="143" depart="7.15" from="232602810" to="427774900#0" />
    <trip id="144" depart="7.2" from="456384921" to="442014419#1" />
    <trip id="145" depart="7.25" from="429011430#7" to="-429011434" />
    <trip id="146" depart="7.3" from="440187416#0" to="440897030#0" />
    <trip id="147" depart="7.35" from="444428463#2" to="440897026#2" />
    <trip id="148" depart="7.4" from="-184827126" to="-429080702#1" />
    <trip id="149" depart="7.45" from="-303475994" to="444433525#0" />
    <trip id="150" depart="7.5" from="457886987" to="444418076#0" />
    <trip id="151" depart="7.55" from="453717289#1" to="247429030#0" />
    <trip id="152" depart="7.6" from="-427774913#0" to="448790072" />
    <trip id="153" depart="7.65" from="-429011420#4" to="-444118069#1" />
    <trip id="154" depart="7.7" from="-444118069#0" to="445046639#1" />
    <trip id="155" depart="7.75" from="-45838052#2" to="440881629#5" />
    <trip id="156" depart="7.8" from="461504894#0" to="444351851" />
    <trip id="157" depart="7.85" from="440769445" to="440039576#1" />
    <trip id="158" depart="7.9" from="429011429#3" to="-440771230#0" />
    <trip id="159" depart="7.95" from="430038917#0" to="442087558#2" />
    <trip id="160" depart="8.0" from="442232083" to="459592473#0" />
    <trip id="161" depart="8.05" from="407995607" to="439976644" />
    <trip id="162" depart="8.1" from="194339708" to="449860495" />
    <trip id="163" depart="8.15" from="-322620773#1" to="429011415#0" />
    <trip id="164" depart="8.2" from="-303720181" to="444118069#1" />
    <trip id="165" depart="8.25" from="441997995#2" to="-440771230#1" />
    <trip id="166" depart="8.3" from="447215987#1" to="297891659#1" />
    <trip id="167" depart="8.35" from="439895978#0" to="27318126#3" />
    <trip id="168" depart="8.4" from="302857653#2" to="444422640#2" />
    <trip id="169" depart="8.45" from="297891659#0" to="440897028#1" />
    <trip id="170" depart="8.5" from="445014537#1" to="442879329#1" />
    <trip id="171" depart="8.55" from="429011446" to="439900139" />
    <trip id="172" depart="8.6" from="194344117" to="444126142" />
    <trip id="173" depart="8.65" from="458699294#0" to="298344724" />
    <trip id="174" depart="8.7" from="445167429#1" to="445167431" />
    <trip id="175" depart="8.75" from="429080702#3" to="194344127" />
    <trip id="176" depart="8.8" from="444232018#6" to="443972854" />
    <trip id="177" depart="8.85" from="247429030#0" to="-303475998#2" />
    <trip id="178" depart="8.9" from="439905478#1" to="449785726" />
    <trip id="179" depart="8.95" from="-429011441#2" to="440037194" />
    <trip id="180" depart="9.0" from="302857649#1" to="441997995#1" />
    <trip id="181" depart="9.05" from="312565414#0" to="-440881469#1" />
    <trip id="182" depart="9.1" from="448781893#2" to="233525478" />
    <trip id="183" depart="9.15" from="449785727#2" to="440039576#0" />
    <trip id="184" depart="9.2" from="440897026#2" to="440897023#1" />
    <trip id="185" depart="9.25" from="-429011441#0" to="440774133" />
    <trip id="186" depart="9.3" from="-302857657#1" to="441997995#0" />
    <trip id="187" depart="9.35" from="441997995#0" to="248282332#2" />
    <trip id="188" depart="9.4" from="460737120" to="450350861" />
    <trip id="189" depart="9.45" from="442232086" to="449785723#0" />
    <trip id="190" depart="9.5" from="264409075" to="233809682" />
    <trip id="191" depart="9.55" from="303475993#1" to="194344114#1" />
    <trip id="192" depart="9.6" from="439905478#1" to="429011448#1" />
    <trip id="193" depart="9.65" from="440881184#0" to="457885320#0" />
    <trip id="194" depart="9.7" from="248407674#0" to="444418076#2" />
    <trip id="195" depart="9.75" from="-427564710#0" to="458696110#1" />
    <trip id="196" depart="9.8" from="449785726" to="446148167" />
    <trip id="197" depart="9.85" from="445178978" to="461505918#2" />
    <trip id="198" depart="9.9" from="440044936#2" to="40016187#1" />
    <trip id="199" depart="9.95" from="429011415#0" to="442232090#0" />
    <trip id="200" depart="10.0" from="-440063998" to="-429080724" />
    <trip id="201" depart="10.05" from="40020604" to="429011422#2" />
    <trip id="202" depart="10.1" from="439963187" to="-322620773#3" />
    <trip id="203" depart="10.15" from="-439902716" to="27318112#1" />
    <trip id="204" depart="10.2" from="206608466#0" to="440897780#1" />
    <trip id="205" depart="10.25" from="-29141189#1" to="450350861" />
    <trip id="206" depart="10.3" from="303475994" to="233932486" />
    <trip id="207" depart="10.35" from="-440042637" to="442232085#1" />
    <trip id="208" depart="10.4" from="440202873" to="444232018#0" />
    <trip id="209" depart="10.45" from="456540545" to="248284666" />
    <trip id="210" depart="10.5" from="-45838052#5" to="430038917#1" />
    <trip id="211" depart="10.55" from="440771220" to="334124302#2" />
    <trip id="212" depart="10.6" from="303719972" to="-429080700#5" />
    <trip id="213" depart="10.65" from="462138645#0" to="427774899#1" />
    <trip id="214" depart="10.7" from="439897795#1" to="439902715" />
    <trip id="215" depart="10.75" from="448786345" to="89797650#0" />
    <trip id="216" depart="10.8" from="445014536#2" to="440881469#0" />
    <trip id="217" depart="10.85" from="-89797643" to="-439902716" />
    <trip id="218" depart="10.9" from="328501144" to="448790073#1" />
    <trip id="219" depart="10.95" from="449785726" to="-440064002" />
    <trip id="220" depart="11.0" from="194344108#1" to="439900149" />
    <trip id="221" depart="11.05" from="444433525#0" to="456766134" />
    <trip id="222" depart="11.1" from="-454300885#2" to="-302857649#0" />
    <trip id="223" depart="11.15" from="-429011420#0" to="40033626" />
    <trip id="224" depart="11.2" from="102596669" to="428012640" />
    <trip id="225" depart="11.25" from="456541503" to="184739533#0" />
    <trip id="226" depart="11.3" from="439902329#1" to="444126143" />
    <trip id="227" depart="11.35" from="232602811" to="449880708#3" />
    <trip id="228" depart="11.4" from="-439963561" to="444014979#1" />
    <trip id="229" depart="11.45" from="-427774912#1" to="461504894#1" />
    <trip id="230" depart="11.5" from="461505918#0" to="449860495" />
    <trip id="231" depart="11.55" from="462138646" to="440769426" />
    <trip id="232" depart="11.6" from="444118071#1" to="429080700#1" />
    <trip id="233" depart="11.65" from="429011429#2" to="429011415#0" />
    <trip id="234" depart="11.7" from="429011433#1" to="439904288" />
    <trip id="235" depart="11.75" from="45838048#0" to="194345864" />
    <trip id="236" depart="11.8" from="407995607" to="440881562#0" />
    <trip id="237" depart="11.85" from="334124302#2" to="442016957#4" />
    <trip id="238" depart="11.9" from="194339709#1" to="442087558#2" />
    <trip id="239" depart="11.95" from="459587615" to="445080099#5" />
    <trip id="240" depart="12.0" from="440897780#0" to="455105562#0" />
    <trip id="241" depart="12.05" from="440897030#1" to="460351832" />
    <trip id="242" depart="12.1" from="429011417#1" to="302857650#1" />
    <trip id="243" depart="12.15" from="302857657#0" to="442359395" />
    <trip id="244" depart="12.2" from="446269827#2" to="248407685" />
    <trip id="245" depart="12.25" from="-406977632#0" to="-429080720#2" />
    <trip id="246" depart="12.3" from="89797648#1" to="429011441#5" />
    <trip id="247" depart="12.35" from="-444111347#1" to="456766135" />
    <trip id="248" depart="12.4" from="429011420#7" to="199896076" />
    <trip id="249" depart="12.45" from="440187416#1" to="-199898702" />
    <trip id="250" depart="12.5" from="439901406#3" to="-89797643" />
    <trip id="251" depart="12.55" from="-429011441#5" to="-29141057#1" />
    <trip id="252" depart="12.6" from="442016957#1" to="-411044293" />
    <trip id="253" depart="12.65" from="-194334826#3" to="-429080690" />
    <trip id="254" depart="12.7" from="453717289#1" to="454300882" />
    <trip id="255" depart="12.75" from="440881629#1" to="322628974" />
    <trip id="256" depart="12.8" from="457885320#0" to="-439963476" />
    <trip id="257" depart="12.85" from="-446269827#1" to="297891659#1" />
    <trip id="258" depart="12.9" from="-194339716" to="443178672#1" />
    <trip id="259" depart="12.95" from="40020604" to="224732387" />
    <trip id="260" depart="13.0" from="445014536#2" to="444014977#0" />
    <trip id="261" depart="13.05" from="29141057#0" to="27318112#1" />
    <trip id="262" depart="13.1" from="439905478#2" to="462282209" />
    <trip id="263" depart="13.15" from="442016957#0" to="453294515" />
    <trip id="264" depart="13.2" from="194344108#0" to="429011430#6" />
    <trip id="265" depart="13.25" from="-302857657#1" to="334124305#0" />
    <trip id="266" depart="13.3" from="429011430#8" to="460351985" />
    <trip id="267" depart="13.35" from="322629017#0" to="453040324#1" />
    <trip id="268" depart="13.4" from="444428463#0" to="446269829#1" />
    <trip id="269" depart="13.45" from="-429080700#7" to="442085400" />
    <trip id="270" depart="13.5" from="118265791" to="442016281" />
    <trip id="271" depart="13.55" from="442141003" to="322620773#2" />
    <trip id="272" depart="13.6" from="454300885#1" to="199898038#0" />
    <trip id="273" depart="13.65" from="29141670#1" to="444418081" />
    <trip id="274" depart="13.7" from="440771238" to="446269829#1" />
    <trip id="275" depart="13.75" from="451042486" to="233809682" />
    <trip id="276" depart="13.8" from="-303475993#1" to="462131779" />
    <trip id="277" depart="13.85" from="80912821#0" to="232602810" />
    <trip id="278" depart="13.9" from="429011420#1" to="29141189#2" />
    <trip id="279" depart="13.95" from="-322620774#1" to="439905478#2" />
    <trip id="280" depart="14.0" from="449683612" to="445005880" />
    <trip id="281" depart="14.05" from="457885320#2" to="439963561" />
    <trip id="282" depart="14.1" from="-429080721" to="188246611#1" />
    <trip id="283" depart="14.15" from="334124305#2" to="-428729409#0" />
    <trip id="284" depart="14.2" from="449785727#5" to="444418079" />
    <trip id="285" depart="14.25" from="-29140969#0" to="444232017#1" />
    <trip id="286" depart="14.3" from="442232084" to="440897026#2" />
    <trip id="287" depart="14.35" from="-429080700#1" to="-322620773#4" />
    <trip id="288" depart="14.4" from="459587614" to="233810276" />
    <trip id="289" depart="14.45" from="232796360#0" to="194344108#2" />
    <trip id="290" depart="14.5" from="428012641" to="247429032#0" />
    <trip id="291" depart="14.55" from="460737119" to="444422638#1" />
    <trip id="292" depart="14.6" from="228124193" to="40016187#0" />
    <trip id="293" depart="14.65" from="-440063998" to="440881188#1" />
    <trip id="294" depart="14.7" from="27318112#1" to="446269825" />
    <trip id="295" depart="14.75" from="429011447" to="-29141189#2" />
    <trip id="296" depart="14.8" from="439976645" to="-322629114" />
    <trip id="297" depart="14.85" from="460360345#2" to="455105562#1" />
    <trip id="298" depart="14.9" from="-440771230#1" to="146688869" />
    <trip id="299" depart="14.95" from="429080720#1" to="45838048#1" />
    <trip id="300" depart="15.0" from="-206608466#0" to="457885320#2" />
    <trip id="301" depart="15.05" from="-428012641" to="232602658#0" />
    <trip id="302" depart="15.1" from="440897382#2" to="456384920" />
    <trip id="303" depart="15.15" from="440187416#1" to="322620773#1" />
    <trip id="304" depart="15.2" from="444428461#1" to="40020609" />
    <trip id="305" depart="15.25" from="462138646" to="439965069#1" />
    <trip id="306" depart="15.3" from="443969221" to="-80911897" />
    <trip id="307" depart="15.35" from="441997995#2" to="-302857648#0" />
    <trip id="308" depart="15.4" from="452686140" to="448947832" />
    <trip id="309" depart="15.45" from="444428465#1" to="-322628961#0" />
    <trip id="310" depart="15.5" from="-80912589#1" to="445014537#1" />
    <trip id="311" depart="15.55" from="439902328#4" to="442359393#1" />
    <trip id="312" depart="15.6" from="302857648#0" to="-454300885#1" />
    <trip id="313" depart="15.65" from="451041315" to="442014419#0" />
    <trip id="314" depart="15.7" from="439963395" to="264409075" />
    <trip id="315" depart="15.75" from="247429030#1" to="302857655#1" />
    <trip id="316" depart="15.8" from="442232081" to="24617126" />
    <trip id="317" depart="15.85" from="194345864" to="233337680" />
    <trip id="318" depart="15.9" from="-359990752#1" to="461504894#1" />
    <trip id="319" depart="15.95" from="29142233" to="460353536" />
    <trip id="320" depart="16.0" from="297891659#0" to="247429030#0" />
    <trip id="321" depart="16.05" from="444422640#1" to="439902328#2" />
    <trip id="322" depart="16.1" from="-302857648#1" to="-45838052#0" />
    <trip id="323" depart="16.15" from="454300892#0" to="447215989#0" />
    <trip id="324" depart="16.2" from="440881631" to="118265794" />
    <trip id="325" depart="16.25" from="194345865" to="440042637" />
    <trip id="326" depart="16.3" from="457886989" to="453294516#1" />
    <trip id="327" depart="16.35" from="427564714#1" to="421238582" />
    <trip id="328" depart="16.4" from="40020600#0" to="439895645" />
    <trip id="329" depart="16.45" from="40020609" to="443987646" />
    <trip id="330" depart="16.5" from="440897781#2" to="-439902715" />
    <trip id="331" depart="16.55" from="458714677" to="228123842" />
    <trip id="332" depart="16.6" from="475301477" to="-421238582" />
    <trip id="333" depart="16.65" from="462138644#0" to="444428463#1" />
    <trip id="334" depart="16.7" from="457886988" to="-306349107#0" />
    <trip id="335" depart="16.75" from="232602658#0" to="462131778#1" />
    <trip id="336" depart="16.8" from="45838052#2" to="184740438#1" />
    <trip id="337" depart="16.85" from="440057982" to="-427774900#1" />
    <trip id="338" depart="16.9" from="29141817" to="439902329#4" />
    <trip id="339" depart="16.95" from="-89797648#0" to="460360353" />
    <trip id="340" depart="17.0" from="233810277" to="100858016" />
    <trip id="341" depart="17.05" from="442232087" to="228124191" />
    <trip id="342" depart="17.1" from="206608466#0" to="441997995#3" />
    <trip id="343" depart="17.15" from="449785726" to="440769410" />
    <trip id="344" depart="17.2" from="-194334826#2" to="45838052#6" />
    <trip id="345" depart="17.25" from="-440881187" to="-194443816#1" />
    <trip id="346" depart="17.3" from="-439902716" to="199896075#0" />
    <trip id="347" depart="17.35" from="429080690" to="429080690" />
    <trip id="348" depart="17.4" from="443346645" to="446269827#2" />
    <trip id="349" depart="17.45" from="429011445#3" to="442016280" />
    <trip id="350" depart="17.5" from="429011415#2" to="248282336#4" />
    <trip id="351" depart="17.55" from="-440064000" to="-440881469#2" />
    <trip id="352" depart="17.6" from="440881469#3" to="429011420#7" />
    <trip id="353" depart="17.65" from="-453033846#1" to="427774899#2" />
    <trip id="354" depart="17.7" from="439900146#0" to="45838052#3" />
    <trip id="355" depart="17.75" from="449860495" to="-146688868#0" />
    <trip id="356" depart="17.8" from="429011430#0" to="421239334" />
    <trip id="357" depart="17.85" from="448282334" to="440897026#2" />
    <trip id="358" depart="17.9" from="460360350" to="29141762" />
    <trip id="359" depart="17.95" from="322629017#0" to="441997995#5" />
    <trip id="360" depart="18.0" from="27318112#1" to="443987648#1" />
    <trip id="361" depart="18.05" from="445080100#1" to="29165238#2" />
    <trip id="362" depart="18.1" from="453717287" to="429080720#1" />
    <trip id="363" depart="18.15" from="443969221" to="248407682" />
    <trip id="364" depart="18.2" from="118265811" to="444126137" />
    <trip id="365" depart="18.25" from="232967182#0" to="442141003" />
    <trip id="366" depart="18.3" from="-29141817" to="-456766136" />
    <trip id="367" depart="18.35" from="-427774912#1" to="453717290" />
    <trip id="368" depart="18.4" from="455105562#0" to="444126144#0" />
    <trip id="369" depart="18.45" from="-429011431" to="188248177" />
    <trip id="370" depart="18.5" from="444418076#1" to="447226542#0" />
    <trip id="371" depart="18.55" from="440897034#0" to="-232602663#0" />
    <trip id="372" depart="18.6" from="-322620773#0" to="-454300882" />
    <trip id="373" depart="18.65" from="248407681" to="440881186#1" />
    <trip id="374" depart="18.7" from="444014976" to="440771237" />
    <trip id="375" depart="18.75" from="429080700#5" to="440044936#1" />
    <trip id="376" depart="18.8" from="461165663" to="442084725#2" />
    <trip id="377" depart="18.85" from="247429032#0" to="-146688868#0" />
    <trip id="378" depart="18.9" from="439902328#1" to="443987648#1" />
    <trip id="379" depart="18.95" from="-440064000" to="448790076#0" />
    <trip id="380" depart="19.0" from="427564714#1" to="-454300882" />
    <trip id="381" depart="19.05" from="445078264" to="306349107#1" />
    <trip id="382" depart="19.1" from="439895969#1" to="248407675" />
    <trip id="383" depart="19.15" from="450920619#0" to="27318126#0" />
    <trip id="384" depart="19.2" from="429011446" to="457885320#2" />
    <trip id="385" depart="19.25" from="440774132" to="232602654" />
    <trip id="386" depart="19.3" from="40016211" to="-45838048#0" />
    <trip id="387" depart="19.35" from="89797648#0" to="40020605" />
    <trip id="388" depart="19.4" from="445167431" to="462138645#0" />
    <trip id="389" depart="19.45" from="233337679" to="-456766136" />
    <trip id="390" depart="19.5" from="456541503" to="-322629006#0" />
    <trip id="391" depart="19.55" from="445080099#2" to="232602663#1" />
    <trip id="392" depart="19.6" from="440897026#1" to="80912591#1" />
    <trip id="393" depart="19.65" from="448790076#1" to="232967182#1" />
    <trip id="394" depart="19.7" from="-429080720#0" to="302857653#2" />
    <trip id="395" depart="19.75" from="427564712#1" to="248407685" />
    <trip id="396" depart="19.8" from="320159746" to="-322620773#0" />
    <trip id="397" depart="19.85" from="457886990" to="-429080724" />
    <trip id="398" depart="19.9" from="440897026#2" to="228124190" />
    <trip id="399" depart="19.95" from="247429032#0" to="-194334821" />
    <trip id="400" depart="20.0" from="451042488" to="429080702#0" />
    <trip id="401" depart="20.05" from="440044937#1" to="429080724" />
    <trip id="402" depart="20.1" from="442016956#1" to="429080724" />
    <trip id="403" depart="20.15" from="460360345#4" to="430038917#0" />
    <trip id="404" depart="20.2" from="312565418" to="459587614" />
    <trip id="405" depart="20.25" from="444014975#1" to="194344105" />
    <trip id="406" depart="20.3" from="27318112#6" to="228124192" />
    <trip id="407" depart="20.35" from="429011448#1" to="444018071" />
    <trip id="408" depart="20.4" from="442016957#1" to="454300892#2" />
    <trip id="409" depart="20.45" from="194339709#1" to="27318126#0" />
    <trip id="410" depart="20.5" from="456382186#1" to="450920620" />
    <trip id="411" depart="20.55" from="-429080700#6" to="427564710#2" />
    <trip id="412" depart="20.6" from="-29141057#2" to="194339708" />
    <trip id="413" depart="20.65" from="-429011436#1" to="427564710#0" />
    <trip id="414" depart="20.7" from="439901406#4" to="460351985" />
    <trip id="415" depart="20.75" from="448790076#0" to="440055729" />
    <trip id="416" depart="20.8" from="248282334#0" to="-439963244" />
    <trip id="417" depart="20.85" from="439976645" to="29118093#5" />
    <trip id="418" depart="20.9" from="429011430#1" to="-297891659#0" />