<?xml version="1.0" encoding="UTF-8"?>

<!-- generated on 02/22/17 13:51:15 by SUMO netconvert Version 0.24.0
<?xml version="1.0" encoding="UTF-8"?>

<configuration xmlns:xsi="http://www.w3.org/2001/XMLSchema-instance" xsi:noNamespaceSchemaLocation="http://sumo.dlr.de/xsd/netconvertConfiguration.xsd">

    <input>
        <type-files value="F:\sumo-win32-0.24.0\sumo-0.24.0\/data/typemap/osmNetconvert.typ.xml"/>
        <osm-files value="zhujiang.osm"/>
    </input>

    <output>
        <output-file value="zhujiang.net.xml"/>
    </output>

    <projection>
        <proj.utm value="true"/>
    </projection>

</configuration>
-->

<net version="0.13" xmlns:xsi="http://www.w3.org/2001/XMLSchema-instance" xsi:noNamespaceSchemaLocation="http://sumo.dlr.de/xsd/net_file.xsd">

    <location netOffset="-732576.16,-2538637.28" convBoundary="0.00,0.00,19871.80,23118.89" origBoundary="113.271417,22.938203,113.464749,23.147310" projParameter="+proj=utm +zone=49 +ellps=WGS84 +datum=WGS84 +units=m +no_defs"/>

    <type id="highway.bridleway" priority="1" numLanes="1" speed="2.78" allow="pedestrian" oneway="1" width="2.00"/>
    <type id="highway.bus_guideway" priority="1" numLanes="1" speed="8.33" allow="bus" oneway="1"/>
    <type id="highway.cycleway" priority="1" numLanes="1" speed="5.56" allow="bicycle" oneway="0" width="1.00"/>
    <type id="highway.footway" priority="1" numLanes="1" speed="8.33" allow="pedestrian" oneway="1" width="2.00"/>
    <type id="highway.ford" priority="1" numLanes="1" speed="2.78" allow="army" oneway="0"/>
    <type id="highway.living_street" priority="3" numLanes="1" speed="2.78" disallow="tram rail_urban rail rail_electric ship" oneway="0"/>
    <type id="highway.motorway" priority="13" numLanes="2" speed="44.44" allow="private emergency authority army vip passenger hov taxi bus coach delivery truck trailer motorcycle evehicle custom1 custom2" oneway="1"/>
    <type id="highway.motorway_link" priority="12" numLanes="1" speed="22.22" allow="private emergency authority army vip passenger hov taxi bus coach delivery truck trailer motorcycle evehicle custom1 custom2" oneway="1"/>
    <type id="highway.path" priority="1" numLanes="1" speed="2.78" allow="bicycle pedestrian" oneway="1" width="2.00"/>
    <type id="highway.pedestrian" priority="1" numLanes="1" speed="8.33" allow="pedestrian" oneway="1" width="2.00"/>
    <type id="highway.primary" priority="9" numLanes="2" speed="27.78" disallow="tram rail_urban rail rail_electric ship" oneway="0"/>
    <type id="highway.primary_link" priority="8" numLanes="1" speed="22.22" disallow="tram rail_urban rail rail_electric ship" oneway="0"/>
    <type id="highway.raceway" priority="14" numLanes="2" speed="83.33" allow="vip" oneway="0"/>
    <type id="highway.residential" priority="4" numLanes="1" speed="13.89" disallow="tram rail_urban rail rail_electric ship" oneway="0"/>
    <type id="highway.secondary" priority="7" numLanes="2" speed="27.78" disallow="tram rail_urban rail rail_electric ship" oneway="0"/>
    <type id="highway.secondary_link" priority="6" numLanes="1" speed="22.22" disallow="tram rail_urban rail rail_electric ship" oneway="0"/>
    <type id="highway.service" priority="2" numLanes="1" speed="5.56" allow="delivery bicycle pedestrian" oneway="0"/>
    <type id="highway.services" priority="1" numLanes="1" speed="8.33" disallow="tram rail_urban rail rail_electric ship" oneway="0"/>
    <type id="highway.stairs" priority="1" numLanes="1" speed="1.39" allow="pedestrian" oneway="1" width="2.00"/>
    <type id="highway.step" priority="1" numLanes="1" speed="1.39" allow="pedestrian" oneway="1" width="2.00"/>
    <type id="highway.steps" priority="1" numLanes="1" speed="1.39" allow="pedestrian" oneway="1" width="2.00"/>
    <type id="highway.tertiary" priority="6" numLanes="1" speed="22.22" disallow="tram rail_urban rail rail_electric ship" oneway="0"/>
    <type id="highway.tertiary_link" priority="5" numLanes="1" speed="22.22" disallow="tram rail_urban rail rail_electric ship" oneway="0"/>
    <type id="highway.track" priority="1" numLanes="1" speed="5.56" disallow="tram rail_urban rail rail_electric ship" oneway="0"/>
    <type id="highway.trunk" priority="11" numLanes="2" speed="27.78" disallow="tram rail_urban rail rail_electric bicycle pedestrian ship" oneway="0"/>
    <type id="highway.trunk_link" priority="10" numLanes="1" speed="22.22" disallow="tram rail_urban rail rail_electric bicycle pedestrian ship" oneway="0"/>
    <type id="highway.unclassified" priority="5" numLanes="1" speed="13.89" disallow="tram rail_urban rail rail_electric ship" oneway="0"/>
    <type id="highway.unsurfaced" priority="1" numLanes="1" speed="8.33" disallow="tram rail_urban rail rail_electric ship" oneway="0"/>
    <type id="railway.light_rail" priority="15" numLanes="1" speed="27.78" allow="rail_urban" oneway="1"/>
    <type id="railway.preserved" priority="15" numLanes="1" speed="27.78" allow="rail" oneway="1"/>
    <type id="railway.rail" priority="15" numLanes="1" speed="83.33" allow="rail rail_electric" oneway="1"/>
    <type id="railway.subway" priority="15" numLanes="1" speed="27.78" allow="rail_urban" oneway="1"/>
    <type id="railway.tram" priority="15" numLanes="1" speed="13.89" allow="tram" oneway="1"/>

    <edge id=":1040805442_0" function="internal">
        <lane id=":1040805442_0_0" index="0" disallow="tram rail_urban rail rail_electric ship" speed="13.89" length="4.82" shape="5947.42,21433.15 5946.72,21434.46 5945.93,21434.94 5945.07,21434.61 5944.14,21433.45"/>
    </edge>
    <edge id=":1187415290_0" function="internal">
        <lane id=":1187415290_0_0" index="0" disallow="tram rail_urban rail rail_electric ship" speed="9.73" length="7.25" shape="5049.72,19626.36 5047.42,19627.62 5046.73,19628.48 5047.64,19628.93 5050.15,19628.98"/>
    </edge>
    <edge id=":1187415290_1" function="internal">
        <lane id=":1187415290_1_0" index="0" allow="bicycle" speed="5.56" length="0.18" width="1.00" shape="5049.72,19626.36 5049.54,19626.33"/>
    </edge>
    <edge id=":1187415290_4" function="internal">
        <lane id=":1187415290_4_0" index="0" speed="5.56" length="1.43" width="1.00" shape="5049.54,19626.33 5049.23,19626.28 5048.99,19626.09 5049.00,19625.79 5049.25,19625.36"/>
    </edge>
    <edge id=":1187415290_2" function="internal">
        <lane id=":1187415290_2_0" index="0" allow="bicycle" speed="9.73" length="14.57" width="1.00" shape="5035.63,19630.39 5039.21,19629.57 5042.60,19628.38 5045.91,19626.94 5049.25,19625.36"/>
    </edge>
    <edge id=":1187415290_3" function="internal">
        <lane id=":1187415290_3_0" index="0" disallow="tram rail_urban rail rail_electric ship" speed="13.89" length="14.60" shape="5035.63,19630.39 5039.28,19629.87 5042.87,19629.47 5046.47,19629.19 5050.15,19628.98"/>
    </edge>
    <edge id=":1338135259_0" function="internal">
        <lane id=":1338135259_0_0" index="0" disallow="tram rail_urban rail rail_electric ship" speed="27.78" length="0.10" shape="5071.79,20722.53 5071.81,20722.53"/>
        <lane id=":1338135259_0_1" index="1" disallow="tram rail_urban rail rail_electric ship" speed="27.78" length="0.10" shape="5071.59,20719.24 5071.58,20719.24"/>
    </edge>
    <edge id=":1338135277_0" function="internal">
        <lane id=":1338135277_0_0" index="0" disallow="tram rail_urban rail rail_electric ship" speed="27.78" length="23.62" shape="5303.91,20718.92 5298.50,20722.26 5295.11,20726.18 5292.57,20730.99 5289.71,20736.98"/>
    </edge>
    <edge id=":1338135277_1" function="internal">
        <lane id=":1338135277_1_0" index="0" disallow="tram rail_urban rail rail_electric ship" speed="27.78" length="25.64" shape="5303.91,20718.92 5298.05,20722.13 5293.39,20725.52 5288.91,20729.20 5283.55,20733.28"/>
        <lane id=":1338135277_1_1" index="1" disallow="tram rail_urban rail rail_electric ship" speed="27.78" length="25.64" shape="5302.52,20715.92 5296.73,20719.73 5292.11,20724.17 5287.37,20728.24 5281.19,20730.91"/>
    </edge>
    <edge id=":1338135277_3" function="internal">
        <lane id=":1338135277_3_0" index="0" disallow="tram rail_urban rail rail_electric ship" speed="27.78" length="25.48" shape="5299.39,20713.21 5297.30,20719.71 5295.17,20725.34 5292.73,20730.85 5289.71,20736.98"/>
        <lane id=":1338135277_3_1" index="1" disallow="tram rail_urban rail rail_electric ship" speed="27.78" length="25.48" shape="5296.23,20712.25 5294.16,20718.69 5292.09,20724.17 5289.71,20729.53 5286.72,20735.59"/>
    </edge>
    <edge id=":1338135277_5" function="internal">
        <lane id=":1338135277_5_0" index="0" disallow="tram rail_urban rail rail_electric ship" speed="27.78" length="25.05" shape="5296.23,20712.25 5293.44,20719.57 5290.00,20725.12 5285.92,20728.90 5281.19,20730.91"/>
    </edge>
    <edge id=":1659545405_0" function="internal">
        <lane id=":1659545405_0_0" index="0" disallow="tram rail_urban rail rail_electric bicycle pedestrian ship" speed="25.00" length="5.71" shape="5845.52,20706.20 5841.85,20710.57"/>
    </edge>
    <edge id=":1659545405_1" function="internal">
        <lane id=":1659545405_1_0" index="0" disallow="tram rail_urban rail rail_electric bicycle pedestrian ship" speed="27.78" length="5.00" shape="5842.01,20705.56 5841.85,20710.57"/>
        <lane id=":1659545405_1_1" index="1" disallow="tram rail_urban rail rail_electric bicycle pedestrian ship" speed="27.78" length="5.00" shape="5838.72,20705.41 5838.56,20710.40"/>
    </edge>
    <edge id=":1952504173_0" function="internal">
        <lane id=":1952504173_0_0" index="0" allow="delivery bicycle pedestrian" speed="5.56" length="4.82" shape="5161.63,19457.75 5162.34,19456.45 5163.13,19455.97 5163.99,19456.31 5164.92,19457.47"/>
    </edge>
    <edge id=":1952504195_0" function="internal">
        <lane id=":1952504195_0_0" index="0" disallow="tram rail_urban rail rail_electric ship" speed="9.73" length="5.18" shape="5178.77,19619.72 5179.09,19621.15 5179.74,19622.17 5180.74,19622.75 5182.07,19622.91"/>
    </edge>
    <edge id=":1952504195_1" function="internal">
        <lane id=":1952504195_1_0" index="0" allow="delivery bicycle pedestrian" speed="5.56" length="4.82" shape="5178.77,19619.72 5178.06,19621.02 5177.27,19621.50 5176.41,19621.16 5175.49,19620.00"/>
    </edge>
    <edge id=":1952504195_2" function="internal">
        <lane id=":1952504195_2_0" index="0" allow="delivery bicycle pedestrian" speed="9.73" length="5.05" shape="5172.60,19623.30 5173.96,19623.04 5174.90,19622.40 5175.41,19621.39 5175.49,19620.00"/>
    </edge>
    <edge id=":1952504195_3" function="internal">
        <lane id=":1952504195_3_0" index="0" disallow="tram rail_urban rail rail_electric ship" speed="13.89" length="9.49" shape="5172.60,19623.30 5182.07,19622.91"/>
    </edge>
    <edge id=":1952510843_0" function="internal">
        <lane id=":1952510843_0_0" index="0" disallow="tram rail_urban rail rail_electric ship" speed="22.22" length="4.82" shape="3428.72,19601.50 3427.38,19600.85 3426.86,19600.09 3427.15,19599.22 3428.26,19598.23"/>
    </edge>
    <edge id=":1952510867_0" function="internal">
        <lane id=":1952510867_0_0" index="0" disallow="tram rail_urban rail rail_electric ship" speed="22.22" length="21.49" shape="4303.36,19677.66 4304.73,19678.81 4308.62,19678.76 4315.03,19677.50 4323.96,19675.03"/>
    </edge>
    <edge id=":1952510867_1" function="internal">
        <lane id=":1952510867_1_0" index="0" disallow="tram rail_urban rail rail_electric ship" speed="25.00" length="23.15" shape="4303.36,19677.66 4304.83,19679.43 4309.00,19680.71 4315.87,19681.48 4325.44,19681.76"/>
    </edge>
    <edge id=":1952510867_2" function="internal">
        <lane id=":1952510867_2_0" index="0" disallow="tram rail_urban rail rail_electric ship" speed="22.22" length="4.82" shape="4303.36,19677.66 4302.61,19678.95 4301.81,19679.41 4300.96,19679.05 4300.06,19677.87"/>
    </edge>
    <edge id=":1952510867_3" function="internal">
        <lane id=":1952510867_3_0" index="0" disallow="tram rail_urban rail rail_electric ship" speed="25.00" length="5.61" shape="4297.12,19681.75 4298.49,19681.50 4299.45,19680.77 4299.97,19679.55 4300.06,19677.87"/>
    </edge>
    <edge id=":1952510867_4" function="internal">
        <lane id=":1952510867_4_0" index="0" disallow="tram rail_urban rail rail_electric ship" speed="25.00" length="28.13" shape="4297.12,19681.75 4304.33,19681.56 4311.17,19681.02 4317.94,19679.95 4324.91,19678.19"/>
    </edge>
    <edge id=":1952510867_5" function="internal">
        <lane id=":1952510867_5_0" index="0" disallow="tram rail_urban rail rail_electric ship" speed="27.78" length="28.30" shape="4297.12,19681.75 4304.35,19681.71 4311.28,19681.71 4318.20,19681.73 4325.44,19681.76"/>
        <lane id=":1952510867_5_1" index="1" disallow="tram rail_urban rail rail_electric ship" speed="27.78" length="28.30" shape="4297.15,19685.05 4304.38,19685.01 4311.29,19685.01 4318.20,19685.03 4325.43,19685.06"/>
    </edge>
    <edge id=":1952513889_0" function="internal">
        <lane id=":1952513889_0_0" index="0" disallow="tram rail_urban rail rail_electric ship" speed="20.84" length="5.02" shape="4571.75,20168.82 4571.53,20167.48 4570.92,20166.52 4569.92,20165.96 4568.55,20165.78"/>
    </edge>
    <edge id=":1952513889_1" function="internal">
        <lane id=":1952513889_1_0" index="0" disallow="tram rail_urban rail rail_electric ship" speed="27.78" length="9.46" shape="4571.75,20168.82 4571.57,20159.35"/>
        <lane id=":1952513889_1_1" index="1" disallow="tram rail_urban rail rail_electric ship" speed="27.78" length="9.46" shape="4575.05,20168.74 4574.87,20159.30"/>
    </edge>
    <edge id=":1952513889_3" function="internal">
        <lane id=":1952513889_3_0" index="0" disallow="tram rail_urban rail rail_electric ship" speed="20.84" length="5.00" shape="4568.51,20162.48 4569.87,20162.27 4570.83,20161.68 4571.40,20160.70 4571.57,20159.35"/>
    </edge>
    <edge id=":1952513889_4" function="internal">
        <lane id=":1952513889_4_0" index="0" disallow="tram rail_urban rail rail_electric ship" speed="13.89" length="4.82" shape="4568.51,20162.48 4569.76,20163.29 4570.18,20164.11 4569.78,20164.94 4568.55,20165.78"/>
    </edge>
    <edge id=":1952513892_0" function="internal">
        <lane id=":1952513892_0_0" index="0" disallow="tram rail_urban rail rail_electric ship" speed="13.89" length="4.82" shape="4010.94,20174.08 4009.69,20173.27 4009.27,20172.45 4009.67,20171.62 4010.90,20170.78"/>
    </edge>
    <edge id=":1953620283_0" function="internal">
        <lane id=":1953620283_0_0" index="0" disallow="tram rail_urban rail rail_electric bicycle pedestrian ship" speed="27.78" length="3.42" shape="3999.63,19610.07 3997.91,19613.01"/>
        <lane id=":1953620283_0_1" index="1" disallow="tram rail_urban rail rail_electric bicycle pedestrian ship" speed="27.78" length="3.42" shape="3996.33,19609.98 3994.61,19612.94"/>
    </edge>
    <edge id=":1953651027_0" function="internal">
        <lane id=":1953651027_0_0" index="0" disallow="tram rail_urban rail rail_electric ship" speed="13.89" length="4.82" shape="3427.65,20523.97 3426.45,20523.09 3426.08,20522.25 3426.53,20521.44 3427.80,20520.67"/>
    </edge>
    <edge id=":1988676119_0" function="internal">
        <lane id=":1988676119_0_0" index="0" disallow="tram rail_urban rail rail_electric ship" speed="25.00" length="5.21" shape="5286.41,20028.92 5284.95,20029.20 5283.91,20029.82 5283.29,20030.80 5283.08,20032.13"/>
    </edge>
    <edge id=":1988676119_1" function="internal">
        <lane id=":1988676119_1_0" index="0" disallow="tram rail_urban rail rail_electric ship" speed="22.22" length="4.82" shape="5286.41,20028.92 5285.13,20028.17 5284.67,20027.37 5285.03,20026.52 5286.22,20025.63"/>
    </edge>
    <edge id=":1988676119_2" function="internal">
        <lane id=":1988676119_2_0" index="0" disallow="tram rail_urban rail rail_electric ship" speed="25.00" length="5.06" shape="5283.02,20022.63 5283.23,20024.01 5283.83,20024.97 5284.83,20025.51 5286.22,20025.63"/>
    </edge>
    <edge id=":1988676119_3" function="internal">
        <lane id=":1988676119_3_0" index="0" disallow="tram rail_urban rail rail_electric ship" speed="27.78" length="9.49" shape="5283.02,20022.63 5283.08,20032.13"/>
        <lane id=":1988676119_3_1" index="1" disallow="tram rail_urban rail rail_electric ship" speed="27.78" length="9.49" shape="5279.72,20022.66 5279.78,20032.15"/>
    </edge>
    <edge id=":1988676125_0" function="internal">
        <lane id=":1988676125_0_0" index="0" disallow="tram rail_urban rail rail_electric ship" speed="25.00" length="8.40" shape="5282.89,20429.82 5286.48,20437.42"/>
    </edge>
    <edge id=":1988676125_1" function="internal">
        <lane id=":1988676125_1_0" index="0" disallow="tram rail_urban rail rail_electric ship" speed="27.78" length="8.61" shape="5282.89,20429.82 5282.70,20438.47"/>
        <lane id=":1988676125_1_1" index="1" disallow="tram rail_urban rail rail_electric ship" speed="27.78" length="8.61" shape="5279.59,20429.85 5279.40,20438.41"/>
    </edge>
    <edge id=":1988676126_0" function="internal">
        <lane id=":1988676126_0_0" index="0" disallow="tram rail_urban rail rail_electric ship" speed="25.00" length="6.13" shape="5098.59,20504.33 5094.05,20508.44"/>
    </edge>
    <edge id=":1988676126_1" function="internal">
        <lane id=":1988676126_1_0" index="0" disallow="tram rail_urban rail rail_electric ship" speed="27.78" length="0.68" shape="5094.73,20508.46 5094.05,20508.44"/>
        <lane id=":1988676126_1_1" index="1" disallow="tram rail_urban rail rail_electric ship" speed="27.78" length="0.68" shape="5091.43,20508.39 5090.75,20508.37"/>
    </edge>
    <edge id=":1988676175_0" function="internal">
        <lane id=":1988676175_0_0" index="0" disallow="tram rail_urban rail rail_electric ship" speed="13.89" length="4.84" shape="4900.81,21321.38 4896.06,21322.30"/>
    </edge>
    <edge id=":1988676175_1" function="internal">
        <lane id=":1988676175_1_0" index="0" disallow="tram rail_urban rail rail_electric ship" speed="13.89" length="2.41" shape="4900.81,21321.38 4899.48,21320.72 4898.96,21319.95"/>
    </edge>
    <edge id=":1988676175_4" function="internal">
        <lane id=":1988676175_4_0" index="0" speed="13.89" length="2.41" shape="4898.96,21319.95 4899.27,21319.08 4900.39,21318.11"/>
    </edge>
    <edge id=":1988676175_2" function="internal">
        <lane id=":1988676175_2_0" index="0" disallow="tram rail_urban rail rail_electric ship" speed="13.89" length="5.47" shape="4895.03,21319.17 4900.39,21318.11"/>
    </edge>
    <edge id=":1988676175_3" function="internal">
        <lane id=":1988676175_3_0" index="0" disallow="tram rail_urban rail rail_electric ship" speed="13.89" length="2.67" shape="4895.03,21319.17 4896.46,21319.57 4897.11,21320.22 4897.07,21320.48"/>
    </edge>
    <edge id=":1988676175_5" function="internal">
        <lane id=":1988676175_5_0" index="0" speed="13.89" length="2.15" shape="4897.07,21320.48 4896.98,21321.13 4896.06,21322.30"/>
    </edge>
    <edge id=":1988694043_0" function="internal">
        <lane id=":1988694043_0_0" index="0" disallow="tram rail_urban rail rail_electric ship" speed="18.06" length="5.31" shape="3940.56,20555.22 3940.31,20553.91 3939.64,20552.94 3938.54,20552.32 3937.03,20552.05"/>
    </edge>
    <edge id=":1988694043_1" function="internal">
        <lane id=":1988694043_1_0" index="0" disallow="tram rail_urban rail rail_electric ship" speed="22.22" length="9.48" shape="3940.56,20555.22 3940.41,20545.74"/>
    </edge>
    <edge id=":1988694043_2" function="internal">
        <lane id=":1988694043_2_0" index="0" disallow="tram rail_urban rail rail_electric ship" speed="18.06" length="5.08" shape="3937.23,20548.75 3938.63,20548.63 3939.62,20548.09 3940.22,20547.13 3940.41,20545.74"/>
    </edge>
    <edge id=":1988694043_3" function="internal">
        <lane id=":1988694043_3_0" index="0" disallow="tram rail_urban rail rail_electric ship" speed="13.89" length="4.82" shape="3937.23,20548.75 3938.41,20549.65 3938.78,20550.50 3938.31,20551.30 3937.03,20552.05"/>
    </edge>
    <edge id=":2048647328_0" function="internal">
        <lane id=":2048647328_0_0" index="0" disallow="tram rail_urban rail rail_electric ship" speed="22.22" length="5.40" shape="5832.92,20250.52 5829.66,20246.22"/>
    </edge>
    <edge id=":2048647328_1" function="internal">
        <lane id=":2048647328_1_0" index="0" disallow="tram rail_urban rail rail_electric ship" speed="22.22" length="10.02" shape="5832.92,20250.52 5833.10,20247.55 5833.33,20245.53 5833.60,20243.50 5833.91,20240.55"/>
    </edge>
    <edge id=":2048647328_2" function="internal">
        <lane id=":2048647328_2_0" index="0" disallow="tram rail_urban rail rail_electric ship" speed="22.22" length="10.36" shape="5832.92,20250.52 5833.45,20247.64 5834.55,20245.82 5835.96,20244.06 5837.41,20241.38"/>
    </edge>
    <edge id=":2048647370_0" function="internal">
        <lane id=":2048647370_0_0" index="0" disallow="tram rail_urban rail rail_electric bicycle pedestrian ship" speed="27.78" length="0.10" shape="5859.20,20251.24 5859.20,20251.28"/>
        <lane id=":2048647370_0_1" index="1" disallow="tram rail_urban rail rail_electric bicycle pedestrian ship" speed="27.78" length="0.10" shape="5855.90,20251.14 5855.90,20251.18"/>
    </edge>
    <edge id=":2048647381_0" function="internal">
        <lane id=":2048647381_0_0" index="0" disallow="tram rail_urban rail rail_electric ship" speed="22.22" length="7.16" shape="5798.10,21009.61 5794.78,21003.26"/>
    </edge>
    <edge id=":2048647381_1" function="internal">
        <lane id=":2048647381_1_0" index="0" disallow="tram rail_urban rail rail_electric ship" speed="22.22" length="7.58" shape="5794.19,21010.82 5794.78,21003.26"/>
    </edge>
    <edge id=":2048647408_0" function="internal">
        <lane id=":2048647408_0_0" index="0" disallow="tram rail_urban rail rail_electric bicycle pedestrian ship" speed="27.78" length="0.10" shape="5843.15,20251.88 5843.15,20251.88"/>
        <lane id=":2048647408_0_1" index="1" disallow="tram rail_urban rail rail_electric bicycle pedestrian ship" speed="27.78" length="0.10" shape="5846.45,20252.02 5846.45,20252.04"/>
    </edge>
    <edge id=":2048647416_0" function="internal">
        <lane id=":2048647416_0_0" index="0" disallow="tram rail_urban rail rail_electric bicycle pedestrian ship" speed="27.78" length="0.10" shape="5869.48,19709.67 5869.48,19709.66"/>
        <lane id=":2048647416_0_1" index="1" disallow="tram rail_urban rail rail_electric bicycle pedestrian ship" speed="27.78" length="0.10" shape="5872.77,19709.87 5872.77,19709.90"/>
    </edge>
    <edge id=":2048647429_0" function="internal">
        <lane id=":2048647429_0_0" index="0" disallow="tram rail_urban rail rail_electric ship" speed="18.06" length="5.46" shape="5816.40,21325.07 5815.98,21323.82 5815.17,21322.93 5813.96,21322.42 5812.34,21322.29"/>
    </edge>
    <edge id=":2048647429_1" function="internal">
        <lane id=":2048647429_1_0" index="0" disallow="tram rail_urban rail rail_electric ship" speed="22.22" length="9.51" shape="5816.40,21325.07 5815.10,21315.66"/>
    </edge>
    <edge id=":2048647429_2" function="internal">
        <lane id=":2048647429_2_0" index="0" disallow="tram rail_urban rail rail_electric ship" speed="18.06" length="5.12" shape="5812.25,21318.99 5813.65,21318.75 5814.60,21318.11 5815.08,21317.08 5815.10,21315.66"/>
    </edge>
    <edge id=":2048647429_3" function="internal">
        <lane id=":2048647429_3_0" index="0" disallow="tram rail_urban rail rail_electric ship" speed="13.89" length="4.82" shape="5812.25,21318.99 5813.51,21319.78 5813.95,21320.59 5813.56,21321.43 5812.34,21322.29"/>
    </edge>
    <edge id=":2048647444_0" function="internal">
        <lane id=":2048647444_0_0" index="0" disallow="tram rail_urban rail rail_electric ship" speed="22.22" length="11.18" shape="5793.18,21105.31 5791.42,21102.66 5790.17,21100.54 5789.33,21098.28 5788.80,21095.19"/>
    </edge>
    <edge id=":2048647444_1" function="internal">
        <lane id=":2048647444_1_0" index="0" disallow="tram rail_urban rail rail_electric ship" speed="25.00" length="5.81" shape="5793.18,21105.31 5792.43,21103.74 5792.50,21102.58 5793.39,21101.83 5795.10,21101.49"/>
    </edge>
    <edge id=":2048647444_2" function="internal">
        <lane id=":2048647444_2_0" index="0" disallow="tram rail_urban rail rail_electric ship" speed="25.00" length="5.20" shape="5786.02,21098.75 5787.38,21098.45 5788.29,21097.76 5788.77,21096.68 5788.80,21095.19"/>
    </edge>
    <edge id=":2048647444_3" function="internal">
        <lane id=":2048647444_3_0" index="0" disallow="tram rail_urban rail rail_electric ship" speed="27.78" length="8.88" shape="5786.02,21098.75 5794.89,21098.19"/>
        <lane id=":2048647444_3_1" index="1" disallow="tram rail_urban rail rail_electric ship" speed="27.78" length="8.88" shape="5786.23,21102.04 5795.10,21101.49"/>
    </edge>
    <edge id=":2048660596_0" function="internal">
        <lane id=":2048660596_0_0" index="0" disallow="tram rail_urban rail rail_electric ship" speed="27.78" length="0.10" shape="5764.78,20659.65 5764.72,20659.65"/>
        <lane id=":2048660596_0_1" index="1" disallow="tram rail_urban rail rail_electric ship" speed="27.78" length="0.10" shape="5765.02,20662.94 5765.02,20662.94"/>
    </edge>
    <edge id=":2048660603_0" function="internal">
        <lane id=":2048660603_0_0" index="0" disallow="tram rail_urban rail rail_electric ship" speed="27.78" length="7.91" shape="5242.93,20719.73 5242.18,20718.75 5240.91,20717.88 5239.10,20717.11 5236.77,20716.44"/>
        <lane id=":2048660603_0_1" index="1" disallow="tram rail_urban rail rail_electric ship" speed="27.78" length="7.91" shape="5242.93,20719.73 5241.55,20717.12 5240.19,20715.17 5238.86,20713.87 5237.54,20713.23"/>
    </edge>
    <edge id=":2048660603_2" function="internal">
        <lane id=":2048660603_2_0" index="0" disallow="tram rail_urban rail rail_electric ship" speed="27.78" length="9.07" shape="5242.93,20719.73 5240.80,20710.35"/>
        <lane id=":2048660603_2_1" index="1" disallow="tram rail_urban rail rail_electric ship" speed="27.78" length="9.07" shape="5245.92,20718.31 5244.08,20709.99"/>
    </edge>
    <edge id=":2048660604_0" function="internal">
        <lane id=":2048660604_0_0" index="0" disallow="tram rail_urban rail rail_electric bicycle pedestrian ship" speed="22.22" length="0.32" shape="5898.55,21044.89 5898.35,21044.64"/>
    </edge>
    <edge id=":2048660608_0" function="internal">
        <lane id=":2048660608_0_0" index="0" disallow="tram rail_urban rail rail_electric bicycle pedestrian ship" speed="25.00" length="5.07" shape="5829.69,21072.70 5828.85,21077.70"/>
    </edge>
    <edge id=":2048660608_1" function="internal">
        <lane id=":2048660608_1_0" index="0" disallow="tram rail_urban rail rail_electric bicycle pedestrian ship" speed="27.78" length="5.66" shape="5826.34,21072.53 5828.85,21077.70"/>
        <lane id=":2048660608_1_1" index="1" disallow="tram rail_urban rail rail_electric bicycle pedestrian ship" speed="27.78" length="5.66" shape="5823.04,21072.53 5825.55,21077.50"/>
    </edge>
    <edge id=":2048660628_0" function="internal">
        <lane id=":2048660628_0_0" index="0" disallow="tram rail_urban rail rail_electric ship" speed="27.78" length="0.10" shape="5915.04,20644.49 5915.01,20644.50"/>
        <lane id=":2048660628_0_1" index="1" disallow="tram rail_urban rail rail_electric ship" speed="27.78" length="0.10" shape="5915.37,20647.78 5915.39,20647.77"/>
    </edge>
    <edge id=":2048660630_0" function="internal">
        <lane id=":2048660630_0_0" index="0" disallow="tram rail_urban rail rail_electric ship" speed="27.78" length="0.10" shape="5071.69,20710.53 5071.69,20710.53"/>
        <lane id=":2048660630_0_1" index="1" disallow="tram rail_urban rail rail_electric ship" speed="27.78" length="0.10" shape="5071.91,20713.83 5071.89,20713.83"/>
    </edge>
    <edge id=":2048660631_0" function="internal">
        <lane id=":2048660631_0_0" index="0" disallow="tram rail_urban rail rail_electric ship" speed="27.78" length="11.30" shape="5886.39,21093.81 5889.73,21093.73 5892.02,21093.72 5894.30,21093.68 5897.64,21093.52"/>
        <lane id=":2048660631_0_1" index="1" disallow="tram rail_urban rail rail_electric ship" speed="27.78" length="11.30" shape="5886.49,21097.11 5889.86,21097.03 5892.16,21097.02 5894.46,21096.97 5897.83,21096.82"/>
    </edge>
    <edge id=":2048660631_2" function="internal">
        <lane id=":2048660631_2_0" index="0" disallow="tram rail_urban rail rail_electric ship" speed="25.00" length="11.35" shape="5887.30,21100.73 5890.09,21099.32 5892.18,21098.14 5894.46,21097.28 5897.83,21096.82"/>
    </edge>
    <edge id=":2048660652_0" function="internal">
        <lane id=":2048660652_0_0" index="0" disallow="tram rail_urban rail rail_electric ship" speed="27.78" length="35.41" shape="5003.42,21137.10 5011.58,21138.71 5020.71,21140.42 5029.86,21141.69 5038.11,21141.98"/>
        <lane id=":2048660652_0_1" index="1" disallow="tram rail_urban rail rail_electric ship" speed="27.78" length="35.41" shape="5002.96,21140.36 5011.22,21141.98 5020.56,21143.71 5029.93,21144.98 5038.28,21145.27"/>
    </edge>
    <edge id=":2048660652_2" function="internal">
        <lane id=":2048660652_2_0" index="0" disallow="tram rail_urban rail rail_electric ship" speed="27.78" length="35.36" shape="5002.80,21143.91 5011.12,21143.45 5020.45,21142.93 5029.78,21142.42 5038.11,21141.98"/>