<?xml version="1.0" encoding="UTF-8"?>

<!-- generated on 02/22/17 13:52:23 by SUMO duarouter Version 0.24.0
<?xml version="1.0" encoding="UTF-8"?>

<configuration xmlns:xsi="http://www.w3.org/2001/XMLSchema-instance" xsi:noNamespaceSchemaLocation="http://sumo.dlr.de/xsd/duarouterConfiguration.xsd">

    <input>
        <net-file value="input_net.net.xml"/>
        <trip-files value="trips.trips.xml"/>
    </input>

    <output>
        <output-file value="routes.rou.xml"/>
    </output>

</configuration>
-->

<routes xmlns:xsi="http://www.w3.org/2001/XMLSchema-instance" xsi:noNamespaceSchemaLocation="http://sumo.dlr.de/xsd/routes_file.xsd">
    <vehicle id="0" depart="0.00">
        <route edges="453294515 444126141 450614677 233525478 462131778#0 462131778#1 457885321 444232017#0 444232017#1 248407682 248407684#0 248407684#1 442014419#1 440897382#0 440897382#1 440897382#2 402932403#0 402932403#1 442084725#0 442084725#1 442084725#2 442232081 442087559 233809682 233809679#0"/>
    </vehicle>
    <vehicle id="1" depart="0.05">
        <route edges="-322629017#1 322629017#1 232967182#1 449706509 449785730 443987641#0 443987641#1 445014537#0 445014537#1 441997991#0 441997991#1 440774131 445078262 445078264 440881562#0 440881562#1 446148172 334124302#0 334124302#1 334124302#2 440881629#0 440881629#1 248407684#1 248407684#2 442014420#0 243320230 456382186#1 442014418#1 440771235"/>
    </vehicle>
    <vehicle id="2" depart="0.10">
        <route edges="-232602663#1 232602663#1 248282334#1 248282334#2 462138645#0 29165238#2 457176635 453717286 450926204 27318126#0 27318126#1 27318126#2 27318126#3 457885321 444126144#0 444126144#1 444126146"/>
    </vehicle>
    <vehicle id="3" depart="0.15">
        <route edges="440897382#2 440897383 146688871 440881562#0 440881562#1 446148172 334124302#0 334124302#1 334124302#2 440881629#0 440881629#1 440881629#2 440881629#3 440881629#4 -248407683"/>
    </vehicle>
    <vehicle id="4" depart="0.20">
        <route edges="429011445#0 429011445#1 298344724 449785728 232967182#0 232967182#1 449706509 449785730 443987641#0 443987641#1 445014537#0 445014537#1 441997991#0 441997991#1 445078261#0 445078261#1 442016278 458080382 441997994 442016280 458084591#0 458084591#1 458084591#2"/>
    </vehicle>
    <vehicle id="5" depart="0.25">
        <route edges="444418077 29141189#0 29141189#1 27318126#1 27318126#2 27318126#3 457885321 444232017#0 444232017#1 248407682 248407684#0 248407684#1 248407684#2 442014420#0 442014420#1 456541503 440769433 440881635 456540544 440881636#0 440881636#1 440769417 194344114#1 440897026#0 440897026#1"/>
    </vehicle>
    <vehicle id="6" depart="0.30">
        <route edges="439965069#1 441997995#1 45838048#0 45838048#1 440765420#1 440765420#2 451042488 442016280 458084591#0 458084591#1 458084591#2 312565415#0 312565415#1 442010286 442016281 449785728 232967182#0 232967182#1 449706509 449785730 443987641#0 443987641#1 445014537#0 445014537#1 442010287 40016208 40016214"/>
    </vehicle>
    <vehicle id="7" depart="0.35">
        <route edges="440881562#0 440881562#1 446148172 334124302#0 334124302#1 334124302#2 440881629#0 440897034#1 248407685 248407677 457886991 448790074 199898039 462138646 444428461#0 444428461#1 29140830#2 29140969#0 -29140969#0"/>
    </vehicle>
    <vehicle id="8" depart="0.40">
        <route edges="457176635 453717286 450926204 27318126#0 27318126#1 27318126#2 199898409 448790074 199898039 462138647 444126143 448790076#0 448790076#1 199898038#0"/>
    </vehicle>
    <vehicle id="9" depart="0.45">
        <route edges="233337676 441997992 441997993 443987641#1 445014537#0 445014537#1 441997991#0 441997991#1 440774131 445078262 445078263 445078265 442016277 441997997 441997995#0 441997995#1 441997995#2"/>
    </vehicle>
    <vehicle id="10" depart="0.50">
        <route edges="119029073 228124193 228124192 446148172 440881563 440897383 146688871 440881562#0 119029072 228124191 228124190 462138643 451041313 29118096 457886988 450926204 27318126#0 27318126#1 27318126#2 27318126#3 457885320#0 457885320#1 457885320#2 457885320#3 457885320#4 457885320#5 457885320#6 248283748 444422638#3 248284675 449070493#0 449070493#1 444419547 444420600"/>
    </vehicle>
    <vehicle id="11" depart="0.55">
        <route edges="445014537#1 27318112#0 27318112#1 27318112#2 27318112#3 27318112#4 444418077 29141189#0 29141189#1 27318126#1 27318126#2 199898409 448790074 199898039 462138647 448790075 450920620 453294516#0 453294516#1 453294516#2"/>
    </vehicle>
    <vehicle id="12" depart="0.60">
        <route edges="442232082#2 440881635 188246591 456384920 456382186#0 456382186#1 442014418#1 442014419#0 442014419#1 440897382#0 440897382#1 440897382#2 402932403#0 402932403#1 442084725#0 442084725#1 442084736 442084732#1 442084733#0"/>
    </vehicle>
    <vehicle id="13" depart="0.65">
        <route edges="457886988 450926204 457884963 457886989 228123843 27318112#4 444418077"/>
    </vehicle>
    <vehicle id="14" depart="0.70">
        <route edges="462138645#2 444418076#1 444433525#1 444433525#2 457176636 453717289#0 453717289#1 453717290 443987641#0"/>
    </vehicle>
    <vehicle id="15" depart="0.75">
        <route edges="199898038#2 -29141189#2 27318126#1 27318126#2 27318126#3 457885321 444232017#0 444232017#1 248407682 248407684#0 248407684#1 248407684#2 442014420#0 442014420#1 456541503 440769433 440881635 456540544 440881636#0 440881636#1 440881636#2 449880708#2 248284670 458699294#0 458699294#1"/>
    </vehicle>
    <vehicle id="16" depart="0.80">
        <route edges="453717289#0 -232602658#1 248282334#2 462138645#0 29165238#2 457176635 453717286 450926204 457884963 457886989 228123843"/>
    </vehicle>
    <vehicle id="17" depart="0.85">
        <route edges="429011445#1 298344724 449785728 232967182#0 232967182#1 449706509 449785730 443987641#0 443987641#1 445014537#0 445014537#1 441997991#0 441997991#1 440774133 312565415#0 312565415#1 442010286 298344725"/>
    </vehicle>
    <vehicle id="18" depart="0.90">
        <route edges="444418082 444428463#2 444428464 250274117#2 444018067 232602810 233932486 29165238#0 29165238#1 29165238#2"/>
    </vehicle>
    <vehicle id="19" depart="0.95">
        <route edges="441997996 445078262 445078263 445078265 440774132 442016278 458080382 441997994 442016280 458084591#0 458084591#1 458084591#2 312565415#0 312565415#1 442010286 442016281 449785728 232967182#0 -322629017#1 -322629006#1 -322629006#0 429011445#1 298344724"/>
    </vehicle>
    <vehicle id="20" depart="1.00">
        <route edges="27318112#5 27318112#6 27318112#7 27318112#8 27318112#9"/>
    </vehicle>
    <vehicle id="21" depart="1.05">
        <route edges="457885320#6 248283748 444422638#3 248284675 449070493#0 449070493#1 444419547 444420600 248282332#0 29118093#0 29118093#1 29118093#2 29118093#3 29118093#4 29118093#5 29118093#6 457886990 448781893#0 29142233 444418080 448790072 248407678"/>
    </vehicle>
    <vehicle id="22" depart="1.10">
        <route edges="440897034#1 248407685 248407677 457886990 448781893#0 448781893#1 -29141189#0 444418078 27318112#6 27318112#7 27318112#8 27318112#9"/>
    </vehicle>
    <vehicle id="23" depart="1.15">
        <route edges="194344114#1 440897026#0 440897026#1 440897026#2 450614679 440897030#0 440897030#1 456541502 450920619#0 450920619#1 440897034#0 440897034#1 248407685 248407677 457886990 448781893#0 448781893#1 448781893#2 457886989 446148167 462138643 29141670#0 29141817"/>
    </vehicle>
    <vehicle id="24" depart="1.20">
        <route edges="411044293 248407683 440881629#5 441943777 442014418#0 442014418#1 442014419#0 442014419#1 440897382#0 440897382#1 440897382#2 440897383 146688871 440881562#0 119029072 228124191 228124190 462138643 29141670#0 29141670#1 445014537#0"/>
    </vehicle>
    <vehicle id="25" depart="1.25">
        <route edges="119029073 228124193 228124192 446148172 440881563 440897383 194345865 445078265 440774132 442016278 458080382 442016279#0 442016279#1"/>
    </vehicle>
    <vehicle id="26" depart="1.30">
        <route edges="-29141057#0 29141057#0 248282336#2 248282336#3 248282336#4 462131779 199898039 462138646"/>
    </vehicle>
    <vehicle id="27" depart="1.35">
        <route edges="232602810 233932486 29165238#0 29165238#1 462138645#1 462138645#2 462138645#3 462138646 444428461#0 444428461#1 29140830#2 -29140830#2"/>
    </vehicle>
    <vehicle id="28" depart="1.40">
        <route edges="248282336#0 248282336#1 248282336#2 248282336#3 248282336#4 462131778#0 462131778#1 457885321 444232017#0 444232017#1 248407682 248407684#0 248407684#1 442014419#1 440897382#0 440897382#1 440897382#2 402932403#0 402932403#1 442084725#0 442084725#1 442084725#2 442232081 442087559 233809682 233809679#0 233809679#1"/>
    </vehicle>
    <vehicle id="29" depart="1.45">
        <route edges="462138645#2 462138645#3 462138646 233525478 462131778#0 462131778#1 457885321 444232017#0 444232017#1 248407682 248407684#0 248407684#1 248407684#2 442014420#0 442014420#1 456541503 440881634#0 440881634#1 450614679 440897028#0 440897028#1 442232083 442087558#0 442084727#0"/>
    </vehicle>
    <vehicle id="30" depart="1.50">
        <route edges="444422640#0 444422640#1 444422640#2 29118093#1 29118093#2 29118093#3 29118093#4 29118093#5 248407674#0 444126144#1 299795207 444149841 444149842 27318117 444149844 444232018#0 444232018#1 444232018#2 444232018#3 444232018#4 444232018#5 248407680 248407681 248407675"/>
    </vehicle>
    <vehicle id="31" depart="1.55">
        <route edges="440044936#1 232602662 445014536#0 445014536#1 445014536#2 453717290 443987641#0 29141657#0 29141657#1 29118096 457886988 450926204 27318126#0 -29141189#1"/>
    </vehicle>
    <vehicle id="32" depart="1.60">
        <route edges="440881632#1 442014420#0 442014420#1 456541503 440769430 456541502 450920619#0 450920619#1 440897034#0 440897034#1 248407685 248407677 457886990 448781893#0 448781893#1 448781893#2 457886989 446148167 462138643 451041313 29118096 29165179 453717287 453717288 462138644#0 462138644#1 462138644#2 457886987 443987642 445014535 440044936#3 440044936#0 443987640"/>
    </vehicle>
    <vehicle id="33" depart="1.65">
        <route edges="453717285 453717287 453717288 462138645#0 29165238#2 457176635 453717286 450926204 27318126#0 -29141189#1 -29141189#0"/>
    </vehicle>
    <vehicle id="34" depart="1.70">
        <route edges="444014976 444014977#0 444014977#1 443987645#0 443987645#1 443987645#2 443987646 448790076#1 448790076#2 29165238#0 29165238#1 29165238#2 457176635 453717286 450926204 457884963 457886989 446148167 462138643 29141670#0 29141670#1 445014537#0 445014537#1 441997991#0 441997991#1 440774133 312565415#0 312565415#1 442010286 440046811 224934251#0"/>
    </vehicle>
    <vehicle id="35" depart="1.75">
        <route edges="453294515 450175300 448790076#0 448790076#1 448790076#2 29165238#0 29165238#1 29165238#2 457176635"/>
    </vehicle>
    <vehicle id="36" depart="1.80">
        <route edges="441997998 445078261#1 442016278 458080382 442016279#0 194344119#1 194344119#2 442084732#0 442084732#1 442084733#0 442084733#1 146688871 440881562#0 119029072 228124191 228124190 462138643 451041313 29118096 457886988 450926204 27318126#0 -29141189#1 -29141189#0 444418078 27318112#6 27318112#7 27318112#8 27318112#9 448790072 448790073#0 444149841"/>
    </vehicle>
    <vehicle id="37" depart="1.85">
        <route edges="228124193 228124192 446148172 440881563 440897383 194345865 445078265 442016277 441997997 439905478#0"/>
    </vehicle>
    <vehicle id="38" depart="1.90">
        <route edges="322629017#1 232967182#1 449706509 449785730 443987641#0 443987641#1 445014537#0 445014537#1 441997991#0 441997991#1 440774131 445078262 445078264 440881562#0 440881562#1 446148172 334124302#0 334124302#1 334124302#2 440881629#0 440881629#1 248407684#1 248407684#2 442014420#0 442014420#1 456541503 440769430"/>
    </vehicle>
    <vehicle id="39" depart="1.95">
        <route edges="440897023#1 233809685 194344111 442087558#0 442087558#1 442087558#2 188246611#0 188246607 194344119#2 442359395 442232081 334124305#0 334124305#1 334124305#2 440769442 450920619#0 450920619#1 440897034#0 440897034#1 248407685 248407677 457886991 448790074 199898039 462138646 444428461#0 444428461#1 29140830#2 29140969#0 29140969#1"/>
    </vehicle>
    <vehicle id="40" depart="2.00">
        <route edges="-440881469#0 -188246609 440881471#0 440881471#1 441997996 445078262 445078264 440881562#0 440881562#1 446148172 334124302#0 206608437 444232018#5 248407680 248407681"/>
    </vehicle>
    <vehicle id="41" depart="2.05">
        <route edges="442085400 334124305#2 440769442 450920619#0 450920619#1 440897034#0 440897034#1 248407685 248407677 457886991 448790074 199898039 462138647"/>
    </vehicle>
    <vehicle id="42" depart="2.10">
        <route edges="442084725#2 442232081 334124305#0 442085401 -440771230#1 -440771230#0 334124304 440897382#2 440897383 194345865 445078265 440774132 442016278 458080382 442016279#0 442016279#1 451041314#0"/>
    </vehicle>
    <vehicle id="43" depart="2.15">
        <route edges="440897028#1 442232083 442087558#0 442087558#1 442087558#2 188246611#0 188246607 194344119#2 442359395 442232081 334124305#0 334124305#1 334124305#2 442232082#0 440897030#1"/>
    </vehicle>
    <vehicle id="44" depart="2.20">
        <route edges="440897382#2 440897383 146688871 440881562#0 119029072 228124191 228124190 462138643 451041313"/>
    </vehicle>
    <vehicle id="45" depart="2.25">
        <route edges="440881469#0 -440881469#0 -188246609 440881471#0 439965068 440881470#1"/>
    </vehicle>
    <vehicle id="46" depart="2.30">
        <route edges="188246611#0 188246607 194344119#2 442359395 442232081 334124305#0 334124305#1 334124305#2 440769442 450920619#0 450920619#1 440897034#0 440897034#1 248407685 248407677 457886990 448781893#0"/>
    </vehicle>
    <vehicle id="47" depart="2.35">
        <route edges="233337680 444014976 444014977#0 444014977#1 443987645#0 443987645#1 443987645#2 443987646 448790076#1 448790076#2 29165238#0 29165238#1 29165238#2 457176635 453717286 450926204 457884963 457886989 119029073 228124193 228124192 446148172 440881563 402932403#0 402932403#1 442084725#0 442084725#1 442084736 442084732#1 442084733#0 442084733#1"/>
    </vehicle>
    <vehicle id="49" depart="2.45">
        <route edges="-440771230#0 334124304 440897382#2 440897383 146688871 440881562#0 119029072 228124191 228124190 462138643 451041313 29118096 457886988"/>
    </vehicle>
    <vehicle id="50" depart="2.50">
        <route edges="442232082#2 440881635 188246591 456384920 456382186#0 456382186#1 442014418#1 442014419#0 442014419#1 440897382#0 440897382#1 440897382#2 440897383 194345865 445078265 442016277 441997997 439905478#0"/>
    </vehicle>
    <vehicle id="51" depart="2.55">
        <route edges="-29141189#1 448781893#2 457886989 119029073 228124193 228124192 446148172 440881563 402932403#0 402932403#1 442084725#0 442084725#1 442084725#2 442232081 442087559"/>
    </vehicle>
    <vehicle id="52" depart="2.60">
        <route edges="444428465#0 444428465#1 248284676 102596669 458696120#0 440769419 194344114#1 440897026#0 440897026#1"/>
    </vehicle>
    <vehicle id="53" depart="2.65">
        <route edges="444400943 194344119#0 194344119#1 194344119#2 442359395 442232081 334124305#0 334124305#1 334124305#2 440769442 450920619#0 450920619#1 440897034#0 440897034#1 248407685 248407677 457886991 448790074 199898039 462138646 444428461#0 444428461#1 29140830#2 29140969#0"/>
    </vehicle>
    <vehicle id="54" depart="2.70">
        <route edges="-444418076#0 444418076#0 462138645#3 462138646 444428461#0 444428461#1 444428461#2 444428461#3 29141057#2 -29140969#1"/>
    </vehicle>
    <vehicle id="55" depart="2.75">
        <route edges="248282336#0 248282336#1 248282336#2 248282336#3 248282336#4 462131778#0 462131778#1 457885321 444232017#0 444232017#1 248407682 248407684#0 248407684#1 248407684#2 442014420#0 442014420#1 456541503 440769433 440881635 456540544 440881636#0 440881636#1 440881636#2 449880708#2 248284670 458699294#0 458699294#1"/>
    </vehicle>
    <vehicle id="56" depart="2.80">
        <route edges="440771230#0 206608466#1 450920619#1 440897034#0 440897034#1 248407685 248407677 457886991 448790074 199898039 462138646 444428461#0 444428461#1 444428461#2"/>
    </vehicle>
    <vehicle id="57" depart="2.85">
        <route edges="444126142 450614677 233525478 462131778#0 462131778#1 457885321 444232017#0 444232017#1 248407682 248407684#0 440881629#2 440881629#3 440881629#4 440881629#5 442014417 458696110#0 458696110#1"/>
    </vehicle>
    <vehicle id="58" depart="2.90">
        <route edges="440771230#1 442085400 334124305#2 442232082#0 442232082#1 442232082#2 440881635 456540544 440881636#0 440881636#1 440881636#2 449880708#2 248284670 458699294#0 458699294#1 248284666 444419547 444420600 248282332#0 29118093#0 29118093#1 29118093#2"/>
    </vehicle>
    <vehicle id="59" depart="2.95">
        <route edges="443987645#0 443987645#1 443987645#2 450175545 444126139"/>
    </vehicle>
    <vehicle id="60" depart="3.00">
        <route edges="444422734 248282332#3 248282336#0 248282336#1 248282336#2 248282336#3 184740438#1"/>
    </vehicle>
    <vehicle id="61" depart="3.05">
        <route edges="-440881469#3 -440881469#2 -440881469#1 -440881469#0 -188246609 440881471#0 440881471#1 441997996 445078262 445078264 440881562#0 119029072 228124191 228124190 462138643 451041313 29118096 29165179 453717287 453717288 462138644#0 462138644#1 462138644#2 457886987 445014534 232796360#0 232602654 232967181#1"/>
    </vehicle>
    <vehicle id="62" depart="3.10">
        <route edges="-359990752#1 440063026#1 -440881469#3 -440881469#2 -440881469#1 -440881469#0 -188246609 440881471#0 440881471#1 441997996 445078262 445078264 440881562#0 440881562#1 446148172 334124302#0 334124302#1 334124302#2 440881629#0 440771220 440881630 440881631 444232018#1 444232018#2"/>
    </vehicle>
    <vehicle id="63" depart="3.15">
        <route edges="-456382186#0 456382186#0 456382186#1 442014418#1 442014419#0 442014419#1 440897382#0 440897382#1 440897382#2 402932403#0 402932403#1 442084725#0 442084725#1 442084725#2 442232081 334124305#0"/>
    </vehicle>
    <vehicle id="64" depart="3.20">
        <route edges="444420600 248282332#0 248282332#1 248282332#2 248282332#3 449070495 444428463#0 444428463#1 444428463#2 444428464 250274117#2 444018067 232602810"/>
    </vehicle>
    <vehicle id="65" depart="3.25">
        <route edges="445078261#0 445078261#1 442016278 458080382 442016279#0 442016279#1"/>
    </vehicle>
    <vehicle id="66" depart="3.30">
        <route edges="194344119#1 194344119#2 442084732#0 442084732#1 442084733#0 442084733#1 146688871 440881562#0 119029072 228124191 228124190 462138643 451041313 29118096 457886988 450926204 27318126#0 27318126#1 27318126#2 27318126#3 457885320#0 457885320#1 457885320#2"/>
    </vehicle>
    <vehicle id="67" depart="3.35">
        <route edges="233337676 441997992 441997993 29141657#0 29141657#1 29118096 457886988 450926204 27318126#0 27318126#1 27318126#2 27318126#3 457885320#0 457885320#1 457885320#2 29140830#0 29140830#1 29140830#2 29140830#3 443987648#1 450614676 453297326 450175300"/>
    </vehicle>
    <vehicle id="68" depart="3.40">
        <route edges="458084591#1 458084591#2 312565415#0 312565415#1 442010286 440046811 224934251#0 40016187"/>
    </vehicle>
    <vehicle id="69" depart="3.45">
        <route edges="444126146 444126145 248407676 448781893#0 448781893#1 29141189#1 27318126#1 27318126#2 27318126#3 457885321 444126144#0 444126144#1"/>
    </vehicle>
    <vehicle id="70" depart="3.50">
        <route edges="444018067 232602810 233932486 29165238#0 29165238#1 29165238#2 457176635 453717286 450926204 27318126#0 27318126#1 27318126#2 27318126#3 457885321 444232017#0 444232017#1 248407682 248407684#0 248407684#1 248407684#2 442014420#0 442014420#1 456541503 440881634#0 440881634#1 450614679 440897028#0 440897028#1 442232083 442087558#0 442084727#0 442084727#1"/>
    </vehicle>
    <vehicle id="71" depart="3.55">
        <route edges="27318112#7 27318112#8 27318112#9 448790072 248407678 444126145 448786344 448790074 199898039 462138647 448790075"/>
    </vehicle>
    <vehicle id="72" depart="3.60">
        <route edges="27318112#7 27318112#8 27318112#9 448790072 448790073#0 444149841 444149842 27318117 444149844 440771222 440881632#0 440881632#1 442014420#0 442014420#1 456541503 440769433 440881635 456540544 440881636#0 440881636#1 440881636#2 449880708#2 449070492 102596674 80912591#0 80912591#1"/>
    </vehicle>
    <vehicle id="73" depart="3.65">
        <route edges="228124192 446148172 334124302#0 334124302#1 334124302#2 440881629#0 440771220 440881630 440881631"/>
    </vehicle>
    <vehicle id="74" depart="3.70">
        <route edges="-29141189#0 29141189#0 448781893#2 457886989 446148167 462138643 29141670#0 29141670#1 445014537#0 445014537#1 441997991#0 441997991#1 440774131"/>
    </vehicle>
    <vehicle id="75" depart="3.75">
        <route edges="456384919 456540545 456384921 456384920 456382543 456541503 440769430 456541502 450920619#0 450920619#1 440897034#0 440897034#1 248407685 248407677 457886991 448790074 199898039 462138646 444428461#0 444428461#1 444428461#2 444428461#3"/>
    </vehicle>
    <vehicle id="76" depart="3.80">
        <route edges="29141057#2 -29140969#1 -29140969#0 -29140830#2 -29140830#1 248282336#3 248282336#4 462131778#0 462131778#1 457885321 444232017#0 444232017#1 248407682 248407684#0 248407684#1 248407684#2 442014420#0 243320230 -456382186#0"/>
    </vehicle>
    <vehicle id="77" depart="3.85">
        <route edges="449785727#0 -322629006#0 429011445#1 298344724 449785728 232967182#0 232967182#1 449706509 449785730 443987641#0 443987641#1 445014537#0 445014537#1 441997991#0 441997991#1 440774131 445078262 445078264 440881562#0 440881562#1 446148172 334124302#0 206608437 444232018#5 248407680 248407681 248407675"/>
    </vehicle>
    <vehicle id="78" depart="3.90">
        <route edges="80912591#0 449070496 248282336#0 248282336#1 248282336#2 248282336#3 248282336#4 462131778#0 462131778#1 457885321 444232017#0 444232017#1 248407682 248407684#0 248407684#1 248407684#2 442014420#0 442014420#1 456541503 440881634#0 440881634#1 450614679 440897030#0 442232082#1"/>
    </vehicle>
    <vehicle id="79" depart="3.95">
        <route edges="29141670#1 445014537#0 445014537#1 27318112#0 27318112#1 27318112#2 446148169 462138643 451041313 29118096 29165179 453717287 453717288 462138644#0 462138644#1 199897219"/>
    </vehicle>
    <vehicle id="80" depart="4.00">
        <route edges="29165238#1 29165238#2 457176635 453717286 450926204 27318126#0 27318126#1 27318126#2 27318126#3 457885321 444232017#0 444232017#1 248407682 248407684#0 248407684#1 248407684#2 442014420#0 243320230 456382186#1 442014418#1 440771237"/>
    </vehicle>
    <vehicle id="81" depart="4.05">
        <route edges="29165238#2 457176635 453717286 450926204 27318126#0 27318126#1 27318126#2 27318126#3 457885320#0 457885320#1 457885320#2 457885320#3 457885320#4 457885320#5 457885320#6 248283748 444422638#3 248284675 449070493#0 449070493#1 444419547 444420600 248282332#0 29118093#0 29118093#1"/>
    </vehicle>
    <vehicle id="82" depart="4.10">
        <route edges="439965068 440881470#1 312565415#0 312565415#1 442010286 442016281 449785728 232967182#0 232967182#1 449706509 449785730 443987641#0 29141657#0 29141657#1 29118096 29165179 453717287 453717288 462138644#0 462138644#1 462138644#2 457886987 443987642 445014536#0 445014536#1"/>
    </vehicle>
    <vehicle id="83" depart="4.15">
        <route edges="334124305#2 440769442 450920619#0 450920619#1 440771240 440897382#0 440897382#1 440897382#2 440897383 146688871 440881562#0 440881562#1 446148172 334124302#0 334124302#1"/>
    </vehicle>
    <vehicle id="85" depart="4.25">
        <route edges="444419547 449070494 449070493#0 444419548 248284668 458696117 458696120#0 440769419 194344114#1 440769424 440897023#1 233809685 194344111 442087558#0 442087558#1 442087558#2 444351851 233810278 440769414"/>
    </vehicle>
    <vehicle id="86" depart="4.30">
        <route edges="446148167 462138643 29141670#0 29141670#1 445014537#0 445014537#1 441997991#0 441997991#1 445078261#0 445078261#1 442016278 458080382 441997994 442016280 458084591#0 458084591#1 441997998"/>
    </vehicle>
    <vehicle id="87" depart="4.35">
        <route edges="248282332#1 248282332#2 248282332#3 248282336#0 248282336#1 248282336#2 248282336#3 248282336#4 462131779 444433525#0 444433525#1 444433525#2 457176636 453717289#0 453717289#1 453717290 443987641#0 29141657#0 29141657#1"/>
    </vehicle>
    <vehicle id="88" depart="4.40">
        <route edges="462138645#0 462138645#1 462138645#2 462138645#3 462138646 233525478 462131779 444433525#0"/>
    </vehicle>
    <vehicle id="89" depart="4.45">
        <route edges="232602661#1 40016198 445014537#1 441997991#0 441997991#1 445078261#0 445078261#1"/>
    </vehicle>
    <vehicle id="90" depart="4.50">
        <route edges="453717290 443987641#0 443987641#1 445014537#0 445014537#1 441997991#0 441997991#1 445078261#0 445078261#1 442016278 458080382 442016279#0 194344119#1 194344119#2 442359395 442232081 334124305#0 334124305#1 334124305#2 440769445"/>
    </vehicle>
    <vehicle id="91" depart="4.55">
        <route edges="458084591#0 458084591#1 458084591#2 312565415#0 312565415#1 442010286 442016281 449785728 232967182#0 232967182#1 449706509 449785730 443987641#0 29141657#0 29141657#1 29118096 457886988 450926204 27318126#0 27318126#1 27318126#2 27318126#3 457885321 444232017#0 444232017#1 248407682"/>
    </vehicle>
    <vehicle id="92" depart="4.60">
        <route edges="457886991 448790074 199898039 462138646 233525478 462131778#0 199898412 457885320#1 457885320#2 457885320#3 457885320#4 457885320#5 475301476 29118093#2 29118093#3 29141094 411044293"/>
    </vehicle>
    <vehicle id="93" depart="4.65">
        <route edges="444018069#0 443987644 443987642 445014536#0 445014536#1 445014536#2 453717290 443987641#0 29141657#0 29141657#1 29118096 457886988 450926204 27318126#0 27318126#1 27318126#2 27318126#3 457885321 444232017#0"/>
    </vehicle>
    <vehicle id="94" depart="4.70">
        <route edges="-444418076#0 444418076#0 462138645#3 462138646 444428461#0 444428461#1 444428461#2 444428461#3 444428461#4 444428463#0 444428463#1 444428463#2 444418083 444428465#0 444428465#1 248284676 102596669"/>
    </vehicle>
    <vehicle id="95" depart="4.75">
        <route edges="445014537#1 27318112#0 27318112#1 27318112#2 27318112#3 27318112#4 444418077 29141189#0 29141189#1 27318126#1 27318126#2 199898409 448790074 199898039 462138647 448790075 450920620 453294516#0 453294516#1 453294516#2 444014979#0 444014979#1 444014979#2"/>
    </vehicle>
    <vehicle id="96" depart="4.80">
        <route edges="442084732#1 442084733#0 442084733#1 146688871 440881562#0 119029072 228124191 228124190 462138643 451041313 29118096 29165179 453717287 453717288 462138645#0 462138645#1 462138645#2 -444418076#0"/>
    </vehicle>
    <vehicle id="97" depart="4.85">
        <route edges="232602810 233932486 29165238#0 29165238#1 29165238#2 457176635 453717286 450926204 27318126#0 27318126#1 27318126#2 27318126#3 457885321 444232017#0 444232017#1 248407682 248407684#0 248407684#1 248407684#2 442014420#0 442014420#1 456541503 440769433 440881635 456540544 440769426"/>
    </vehicle>
    <vehicle id="98" depart="4.90">
        <route edges="233932486 29165238#0 29165238#1 29165238#2 457176635 453717286 450926204 27318126#0 27318126#1 27318126#2 27318126#3 457885320#0 457885320#1 457885320#2 457885320#3 457885320#4 457885320#5 457885320#6 248283748 444422638#3 248284675 449070493#0 444419548"/>
    </vehicle>
    <vehicle id="100" depart="5.00">
        <route edges="442014419#0 248407684#2 442014420#0 442014420#1 456541503 440769433 440881635 456540544 440881636#0 440881636#1 440881636#2 449880708#2 248284670 458699294#0 458699294#1 248284666"/>
    </vehicle>
    <vehicle id="101" depart="5.05">
        <route edges="450614677 233525478 462131778#0 462131778#1 457885321 444232017#0 444232017#1 248407682 248407684#0 248407684#1 248407684#2 442014420#0 442014420#1 456541503 440881634#0 440881634#1 450614679 440897028#0 440897028#1 442232083 442087558#0 442087558#1 442087558#2 188246611#0 188246607"/>
    </vehicle>
    <vehicle id="102" depart="5.10">
        <route edges="188246591 456384920 456382186#0 456382186#1 442014418#1 442014419#0 442014419#1 440897382#0 440897382#1 440897382#2 440897383 146688871 440881562#0 119029072 228124191 228124190 462138643 451041313 29118096 29165179 453717287 453717288 462138644#0 462138644#1 462138644#2 457886987 443987642 445014535 440044936#3 440044936#0 443987640 444014976 444014977#0 444014977#1 443987645#0 188248177"/>
    </vehicle>
    <vehicle id="103" depart="5.15">
        <route edges="-29141817 29141670#1 445014537#0 445014537#1 441997991#0 441997991#1 440774131 445078262 445078264 440881562#0 440881562#1 446148172 334124302#0 334124302#1 334124302#2 440881629#0 440881629#1 440881629#2 440881629#3 440881629#4 -248407683 248407683"/>
    </vehicle>
    <vehicle id="105" depart="5.25">
        <route edges="446148169 462138643 451041313 29118096 457886988 450926204 27318126#0 -29141189#1 -29141189#0 444418078 27318112#6 27318112#7 27318112#8 27318112#9 448790072 448790073#0 444149841 444149842 27318117 444149844 440771222 440881632#0 440881632#1"/>
    </vehicle>
    <vehicle id="106" depart="5.30">
        <route edges="248282336#3 248282336#4 462131779 444433525#0 444418076#2 27318126#2 444126147 448781893#0 29142233 444418080 448790072 248407678"/>
    </vehicle>