<?xml version="1.0"?>
<!-- generated on 2017-02-22 13:52:11.902000 by $Id: randomTrips.py 18756 2015-08-31 19:16:33Z behrisch $
  options: -n input_net.net.xml -e 10 -p 0.05
-->
<trips>
    <trip id="0" depart="0.00" from="453294515" to="233809679#0" />
    <trip id="1" depart="0.05" from="-322629017#1" to="440771235" />
    <trip id="2" depart="0.10" from="-232602663#1" to="444126146" />
    <trip id="3" depart="0.15" from="440897382#2" to="-248407683" />
    <trip id="4" depart="0.20" from="429011445#0" to="458084591#2" />
    <trip id="5" depart="0.25" from="444418077" to="440897026#1" />
    <trip id="6" depart="0.30" from="439965069#1" to="40016214" />
    <trip id="7" depart="0.35" from="440881562#0" to="-29140969#0" />
    <trip id="8" depart="0.40" from="457176635" to="199898038#0" />
    <trip id="9" depart="0.45" from="233337676" to="441997995#2" />
    <trip id="10" depart="0.50" from="119029073" to="444420600" />
    <trip id="11" depart="0.55" from="445014537#1" to="453294516#2" />
    <trip id="12" depart="0.60" from="442232082#2" to="442084733#0" />
    <trip id="13" depart="0.65" from="457886988" to="444418077" />
    <trip id="14" depart="0.70" from="462138645#2" to="443987641#0" />
    <trip id="15" depart="0.75" from="199898038#2" to="458699294#1" />
    <trip id="16" depart="0.80" from="453717289#0" to="228123843" />
    <trip id="17" depart="0.85" from="429011445#1" to="298344725" />
    <trip id="18" depart="0.90" from="444418082" to="29165238#2" />
    <trip id="19" depart="0.95" from="441997996" to="298344724" />
    <trip id="20" depart="1.00" from="27318112#5" to="27318112#9" />
    <trip id="21" depart="1.05" from="457885320#6" to="248407678" />
    <trip id="22" depart="1.10" from="440897034#1" to="27318112#9" />
    <trip id="23" depart="1.15" from="194344114#1" to="29141817" />
    <trip id="24" depart="1.20" from="411044293" to="445014537#0" />
    <trip id="25" depart="1.25" from="119029073" to="442016279#1" />
    <trip id="26" depart="1.30" from="-29141057#0" to="462138646" />
    <trip id="27" depart="1.35" from="232602810" to="-29140830#2" />
    <trip id="28" depart="1.40" from="248282336#0" to="233809679#1" />
    <trip id="29" depart="1.45" from="462138645#2" to="442084727#0" />
    <trip id="30" depart="1.50" from="444422640#0" to="248407675" />
    <trip id="31" depart="1.55" from="440044936#1" to="-29141189#1" />
    <trip id="32" depart="1.60" from="440881632#1" to="443987640" />
    <trip id="33" depart="1.65" from="453717285" to="-29141189#0" />
    <trip id="34" depart="1.70" from="444014976" to="224934251#0" />
    <trip id="35" depart="1.75" from="453294515" to="457176635" />
    <trip id="36" depart="1.80" from="441997998" to="444149841" />
    <trip id="37" depart="1.85" from="228124193" to="439905478#0" />
    <trip id="38" depart="1.90" from="322629017#1" to="440769430" />
    <trip id="39" depart="1.95" from="440897023#1" to="29140969#1" />
    <trip id="40" depart="2.00" from="-440881469#0" to="248407681" />
    <trip id="41" depart="2.05" from="442085400" to="462138647" />
    <trip id="42" depart="2.10" from="442084725#2" to="451041314#0" />
    <trip id="43" depart="2.15" from="440897028#1" to="440897030#1" />
    <trip id="44" depart="2.20" from="440897382#2" to="451041313" />
    <trip id="45" depart="2.25" from="440881469#0" to="440881470#1" />
    <trip id="46" depart="2.30" from="188246611#0" to="448781893#0" />
    <trip id="47" depart="2.35" from="233337680" to="442084733#1" />
    <trip id="48" depart="2.40" from="462131778#1" to="40020609" />
    <trip id="49" depart="2.45" from="-440771230#0" to="457886988" />
    <trip id="50" depart="2.50" from="442232082#2" to="439905478#0" />
    <trip id="51" depart="2.55" from="-29141189#1" to="442087559" />
    <trip id="52" depart="2.60" from="444428465#0" to="440897026#1" />
    <trip id="53" depart="2.65" from="444400943" to="29140969#0" />
    <trip id="54" depart="2.70" from="-444418076#0" to="-29140969#1" />
    <trip id="55" depart="2.75" from="248282336#0" to="458699294#1" />
    <trip id="56" depart="2.80" from="440771230#0" to="444428461#2" />
    <trip id="57" depart="2.85" from="444126142" to="458696110#1" />
    <trip id="58" depart="2.90" from="440771230#1" to="29118093#2" />
    <trip id="59" depart="2.95" from="443987645#0" to="444126139" />
    <trip id="60" depart="3.00" from="444422734" to="184740438#1" />
    <trip id="61" depart="3.05" from="-440881469#3" to="232967181#1" />
    <trip id="62" depart="3.10" from="-359990752#1" to="444232018#2" />
    <trip id="63" depart="3.15" from="-456382186#0" to="334124305#0" />
    <trip id="64" depart="3.20" from="444420600" to="232602810" />
    <trip id="65" depart="3.25" from="445078261#0" to="442016279#1" />
    <trip id="66" depart="3.30" from="194344119#1" to="457885320#2" />
    <trip id="67" depart="3.35" from="233337676" to="450175300" />
    <trip id="68" depart="3.40" from="458084591#1" to="40016187" />
    <trip id="69" depart="3.45" from="444126146" to="444126144#1" />
    <trip id="70" depart="3.50" from="444018067" to="442084727#1" />
    <trip id="71" depart="3.55" from="27318112#7" to="448790075" />
    <trip id="72" depart="3.60" from="27318112#7" to="80912591#1" />
    <trip id="73" depart="3.65" from="228124192" to="440881631" />
    <trip id="74" depart="3.70" from="-29141189#0" to="440774131" />
    <trip id="75" depart="3.75" from="456384919" to="444428461#3" />
    <trip id="76" depart="3.80" from="29141057#2" to="-456382186#0" />
    <trip id="77" depart="3.85" from="449785727#0" to="248407675" />
    <trip id="78" depart="3.90" from="80912591#0" to="442232082#1" />
    <trip id="79" depart="3.95" from="29141670#1" to="199897219" />
    <trip id="80" depart="4.00" from="29165238#1" to="440771237" />
    <trip id="81" depart="4.05" from="29165238#2" to="29118093#1" />
    <trip id="82" depart="4.10" from="439965068" to="445014536#1" />
    <trip id="83" depart="4.15" from="334124305#2" to="334124302#1" />
    <trip id="84" depart="4.20" from="440881471#0" to="40016195" />
    <trip id="85" depart="4.25" from="444419547" to="440769414" />
    <trip id="86" depart="4.30" from="446148167" to="441997998" />
    <trip id="87" depart="4.35" from="248282332#1" to="29141657#1" />
    <trip id="88" depart="4.40" from="462138645#0" to="444433525#0" />
    <trip id="89" depart="4.45" from="232602661#1" to="445078261#1" />
    <trip id="90" depart="4.50" from="453717290" to="440769445" />
    <trip id="91" depart="4.55" from="458084591#0" to="248407682" />
    <trip id="92" depart="4.60" from="457886991" to="411044293" />
    <trip id="93" depart="4.65" from="444018069#0" to="444232017#0" />
    <trip id="94" depart="4.70" from="-444418076#0" to="102596669" />
    <trip id="95" depart="4.75" from="445014537#1" to="444014979#2" />
    <trip id="96" depart="4.80" from="442084732#1" to="-444418076#0" />
    <trip id="97" depart="4.85" from="232602810" to="440769426" />
    <trip id="98" depart="4.90" from="233932486" to="444419548" />
    <trip id="99" depart="4.95" from="445046636" to="444428461#3" />
    <trip id="100" depart="5.00" from="442014419#0" to="248284666" />
    <trip id="101" depart="5.05" from="450614677" to="188246607" />
    <trip id="102" depart="5.10" from="188246591" to="188248177" />
    <trip id="103" depart="5.15" from="-29141817" to="248407683" />
    <trip id="104" depart="5.20" from="450614678#0" to="444346472#1" />
    <trip id="105" depart="5.25" from="446148169" to="440881632#1" />
    <trip id="106" depart="5.30" from="248282336#3" to="248407678" />
    <trip id="107" depart="5.35" from="451042488" to="248282336#1" />
    <trip id="108" depart="5.40" from="248407683" to="457885320#3" />
    <trip id="109" depart="5.45" from="402932403#1" to="27318112#0" />
    <trip id="110" depart="5.50" from="102596674" to="440881629#4" />
    <trip id="111" depart="5.55" from="448781893#0" to="248407684#1" />
    <trip id="112" depart="5.60" from="440897026#0" to="441943777" />
    <trip id="113" depart="5.65" from="440771230#0" to="40016195" />
    <trip id="114" depart="5.70" from="322629017#1" to="-320159746" />
    <trip id="115" depart="5.75" from="444232018#3" to="-322629017#0" />
    <trip id="116" depart="5.80" from="440063026#0" to="429011445#1" />
    <trip id="117" depart="5.85" from="453297326" to="449070496" />
    <trip id="118" depart="5.90" from="449880708#0" to="440881563" />
    <trip id="119" depart="5.95" from="444351851" to="445078260" />
    <trip id="120" depart="6.00" from="450175545" to="453717285" />
    <trip id="121" depart="6.05" from="458696120#0" to="462138643" />
    <trip id="122" depart="6.10" from="233525478" to="-199898411" />
    <trip id="123" depart="6.15" from="444126149" to="445014537#0" />
    <trip id="124" depart="6.20" from="429011445#0" to="449070492" />
    <trip id="125" depart="6.25" from="29118093#6" to="457885321" />
    <trip id="126" depart="6.30" from="456541502" to="-184740438#0" />
    <trip id="127" depart="6.35" from="440771226" to="199898039" />
    <trip id="128" depart="6.40" from="448790074" to="29140830#0" />
    <trip id="129" depart="6.45" from="440897026#0" to="440769424" />
    <trip id="130" depart="6.50" from="248282336#3" to="440769428" />
    <trip id="131" depart="6.55" from="449880708#0" to="445014535" />
    <trip id="132" depart="6.60" from="448790073#1" to="440769442" />
    <trip id="133" depart="6.65" from="232602661#1" to="444014979#0" />
    <trip id="134" depart="6.70" from="450614676" to="29165238#1" />
    <trip id="135" depart="6.75" from="453717287" to="250274117#2" />
    <trip id="136" depart="6.80" from="29142233" to="248407681" />
    <trip id="137" depart="6.85" from="441997996" to="440881636#1" />
    <trip id="138" depart="6.90" from="248282334#0" to="475301477" />
    <trip id="139" depart="6.95" from="194345864" to="-428012644" />
    <trip id="140" depart="7.00" from="448790076#2" to="444014979#0" />
    <trip id="141" depart="7.05" from="440897026#0" to="448790076#1" />
    <trip id="142" depart="7.10" from="402932402" to="457885320#0" />
    <trip id="143" depart="7.15" from="-188246593" to="441997997" />
    <trip id="144" depart="7.20" from="442084732#0" to="442014420#1" />
    <trip id="145" depart="7.25" from="-45838048#0" to="445078263" />
    <trip id="146" depart="7.30" from="458696110#1" to="442014419#1" />
    <trip id="147" depart="7.35" from="188246607" to="453717290" />
    <trip id="148" depart="7.40" from="440897034#0" to="247429032#1" />
    <trip id="149" depart="7.45" from="440769426" to="441997998" />
    <trip id="150" depart="7.50" from="446148169" to="444232018#1" />
    <trip id="151" depart="7.55" from="440881631" to="29118093#4" />
    <trip id="152" depart="7.60" from="29141657#1" to="444126149" />
    <trip id="153" depart="7.65" from="457176635" to="-29141189#0" />
    <trip id="154" depart="7.70" from="247429030#1" to="458696120#1" />
    <trip id="155" depart="7.75" from="224732386" to="444428461#3" />
    <trip id="156" depart="7.80" from="440881562#1" to="232602658#0" />
    <trip id="157" depart="7.85" from="449880708#1" to="440897023#1" />
    <trip id="158" depart="7.90" from="248407677" to="440062732#0" />
    <trip id="159" depart="7.95" from="-29141189#1" to="444232017#0" />
    <trip id="160" depart="8.00" from="440774131" to="448790073#0" />
    <trip id="161" depart="8.05" from="442359395" to="440881629#2" />
    <trip id="162" depart="8.10" from="444418079" to="-427774900" />
    <trip id="163" depart="8.15" from="-359990752#1" to="-29140969#0" />
    <trip id="164" depart="8.20" from="440881629#4" to="250274117#1" />
    <trip id="165" depart="8.25" from="232602654" to="444418081" />
    <trip id="166" depart="8.30" from="475301477" to="45838048#1" />
    <trip id="167" depart="8.35" from="29142233" to="232602654" />
    <trip id="168" depart="8.40" from="-248407683" to="440881470#1" />
    <trip id="169" depart="8.45" from="206608437" to="448790076#2" />
    <trip id="170" depart="8.50" from="440881629#4" to="45838048#1" />
    <trip id="171" depart="8.55" from="27318117" to="334124302#1" />
    <trip id="172" depart="8.60" from="443987643" to="440044936#0" />
    <trip id="173" depart="8.65" from="439905478#1" to="457885320#2" />
    <trip id="174" depart="8.70" from="444418081" to="444232018#7" />
    <trip id="175" depart="8.75" from="442084725#2" to="29140830#0" />
    <trip id="176" depart="8.80" from="27318112#9" to="444014979#2" />
    <trip id="177" depart="8.85" from="450920619#1" to="-322629006#0" />
    <trip id="178" depart="8.90" from="29141657#1" to="457900649" />
    <trip id="179" depart="8.95" from="462138645#2" to="40016187" />
    <trip id="180" depart="9.00" from="444428461#4" to="446148167" />
    <trip id="181" depart="9.05" from="444418080" to="453717288" />
    <trip id="182" depart="9.10" from="188246591" to="442014420#0" />
    <trip id="183" depart="9.15" from="-29141057#0" to="442084725#1" />
    <trip id="184" depart="9.20" from="248407685" to="440062732#1" />
    <trip id="185" depart="9.25" from="440881471#0" to="27318112#9" />
    <trip id="186" depart="9.30" from="312565418" to="45838048#0" />
    <trip id="187" depart="9.35" from="247429032#0" to="462138645#3" />
    <trip id="188" depart="9.40" from="442084733#1" to="453717288" />
    <trip id="189" depart="9.45" from="442084732#1" to="188246593" />
    <trip id="190" depart="9.50" from="440897026#2" to="440771228" />
    <trip id="191" depart="9.55" from="102596672" to="440881470#0" />
    <trip id="192" depart="9.60" from="40016198" to="232796360#0" />
    <trip id="193" depart="9.65" from="194345865" to="457886991" />
    <trip id="194" depart="9.70" from="188246609" to="440881631" />
    <trip id="195" depart="9.75" from="146688871" to="444422640#2" />
    <trip id="196" depart="9.80" from="441997997" to="232602811" />
    <trip id="197" depart="9.85" from="444433525#0" to="-428012644" />
    <trip id="198" depart="9.90" from="29141057#0" to="440897382#1" />
    <trip id="199" depart="9.95" from="462138646" to="462131779" />
</trips>
