<?xml version="1.0"?>
<trips>
    <trip id="0" depart="0.0" from="194344119#0" to="402932403#1" />
    <trip id="1" depart="0.05" from="-184740438#1" to="442232081" />
    <trip id="2" depart="0.1" from="-322629017#1" to="442014417" />
    <trip id="3" depart="0.15" from="462131779" to="444126143" />
    <trip id="4" depart="0.2" from="458084591#1" to="440771237" />
    <trip id="5" depart="0.25" from="444126144#1" to="475301084" />
    <trip id="6" depart="0.3" from="27318112#7" to="441997995#1" />
    <trip id="7" depart="0.35" from="27318112#7" to="-297891659#0" />
    <trip id="8" depart="0.4" from="233809679#0" to="248283748" />
    <trip id="9" depart="0.45" from="248407675" to="248407677" />
    <trip id="10" depart="0.5" from="-184740438#1" to="457886991" />
    <trip id="11" depart="0.55" from="248283749" to="248283748" />
    <trip id="12" depart="0.6" from="248407680" to="440897382#1" />
    <trip id="13" depart="0.65" from="-455096004#1" to="448781893#2" />
    <trip id="14" depart="0.7" from="-188248177" to="-29140969#2" />
    <trip id="15" depart="0.75" from="334124305#2" to="445014537#1" />
    <trip id="16" depart="0.8" from="233337680" to="440881632#1" />
    <trip id="17" depart="0.85" from="448790073#1" to="449785728" />
    <trip id="18" depart="0.9" from="-29141817" to="462138644#0" />
    <trip id="19" depart="0.95" from="444422640#2" to="453294516#2" />
    <trip id="20" depart="1.0" from="440881469#0" to="248407678" />
    <trip id="21" depart="1.05" from="442087558#2" to="-248407683" />
    <trip id="22" depart="1.1" from="444418082" to="442084733#1" />
    <trip id="23" depart="1.15" from="444418078" to="29141189#0" />
    <trip id="24" depart="1.2" from="248407680" to="441997995#1" />
    <trip id="25" depart="1.25" from="29118093#6" to="458084591#2" />
    <trip id="26" depart="1.3" from="320159746" to="119029072" />
    <trip id="27" depart="1.35" from="442084732#1" to="453717288" />
    <trip id="28" depart="1.4" from="224732386" to="441997998" />
    <trip id="29" depart="1.45" from="442087558#2" to="457884963" />
    <trip id="30" depart="1.5" from="199898412" to="334124305#1" />
    <trip id="31" depart="1.55" from="233809679#0" to="232602658#0" />
    <trip id="32" depart="1.6" from="449785727#1" to="119029073" />
    <trip id="33" depart="1.65" from="248284670" to="440881635" />
    <trip id="34" depart="1.7" from="444428465#1" to="450614676" />
    <trip id="35" depart="1.75" from="448282334" to="440881636#2" />
    <trip id="36" depart="1.8" from="27318112#8" to="29141670#1" />
    <trip id="37" depart="1.85" from="449070493#1" to="-232602663#0" />
    <trip id="38" depart="1.9" from="450175545" to="440897028#1" />
    <trip id="39" depart="1.95" from="440881629#0" to="456541503" />
    <trip id="40" depart="2.0" from="449070493#0" to="119029072" />
    <trip id="41" depart="2.05" from="228124192" to="444428465#0" />
    <trip id="42" depart="2.1" from="233810276" to="442141003" />
    <trip id="43" depart="2.15" from="448790073#2" to="-440771230#0" />
    <trip id="44" depart="2.2" from="-359990752#1" to="456382186#1" />
    <trip id="45" depart="2.25" from="29140830#0" to="440897028#1" />
    <trip id="46" depart="2.3" from="458696120#0" to="27318126#1" />
    <trip id="47" depart="2.35" from="40016211" to="462138645#2" />
    <trip id="48" depart="2.4" from="444422640#0" to="299795207" />
    <trip id="49" depart="2.45" from="442010286" to="442232083" />
    <trip id="50" depart="2.5" from="440881629#2" to="445014536#1" />
    <trip id="51" depart="2.55" from="450175545" to="440881636#1" />
    <trip id="52" depart="2.6" from="-29141094" to="27318112#0" />
    <trip id="53" depart="2.65" from="443987646" to="444422734" />
    <trip id="54" depart="2.7" from="453294515" to="-440881469#1" />
    <trip id="55" depart="2.75" from="232967182#0" to="442084739" />
    <trip id="56" depart="2.8" from="444126144#1" to="-440881469#2" />
    <trip id="57" depart="2.85" from="-375664226" to="188248177" />
    <trip id="58" depart="2.9" from="448790076#2" to="444420600" />
    <trip id="59" depart="2.95" from="-320159746" to="-29141189#2" />
    <trip id="60" depart="3.0" from="440062732#0" to="228124191" />
    <trip id="61" depart="3.05" from="29141670#1" to="440881562#1" />
    <trip id="62" depart="3.1" from="334124305#0" to="462131778#1" />
    <trip id="63" depart="3.15" from="475301476" to="27318112#0" />
    <trip id="64" depart="3.2" from="29142233" to="27318117" />
    <trip id="65" depart="3.25" from="440769445" to="462138645#3" />
    <trip id="66" depart="3.3" from="440769424" to="194345864" />
    <trip id="67" depart="3.35" from="199897219" to="444149844" />
    <trip id="68" depart="3.4" from="-29140969#0" to="-188246593" />
    <trip id="69" depart="3.45" from="442084725#1" to="444232018#0" />
    <trip id="70" depart="3.5" from="442087558#0" to="248407677" />
    <trip id="71" depart="3.55" from="440771222" to="29141057#0" />
    <trip id="72" depart="3.6" from="228124192" to="444149842" />
    <trip id="73" depart="3.65" from="248282336#3" to="444433525#1" />
    <trip id="74" depart="3.7" from="334124302#1" to="444126146" />
    <trip id="75" depart="3.75" from="462138644#2" to="232967182#0" />
    <trip id="76" depart="3.8" from="188246591" to="-184740438#0" />
    <trip id="77" depart="3.85" from="232796360#0" to="441997991#1" />
    <trip id="78" depart="3.9" from="440771240" to="453717288" />
    <trip id="79" depart="3.95" from="440881562#1" to="119029073" />
    <trip id="80" depart="4.0" from="27318112#6" to="462138645#0" />
    <trip id="81" depart="4.05" from="444428461#2" to="457900649" />
    <trip id="82" depart="4.1" from="443987644" to="442014418#0" />
    <trip id="83" depart="4.15" from="102596674" to="442232081" />
    <trip id="84" depart="4.2" from="444422734" to="444422640#2" />
    <trip id="85" depart="4.25" from="440881469#1" to="441997996" />
    <trip id="86" depart="4.3" from="248407674#0" to="462131778#0" />
    <trip id="87" depart="4.35" from="442084732#0" to="440765420#1" />
    <trip id="88" depart="4.4" from="440769410" to="444232018#5" />
    <trip id="89" depart="4.45" from="442084725#2" to="443987645#1" />
    <trip id="90" depart="4.5" from="188246611#0" to="-232602663#0" />
    <trip id="91" depart="4.55" from="443987645#0" to="444422638#2" />
    <trip id="92" depart="4.6" from="441997995#1" to="199898412" />
    <trip id="93" depart="4.65" from="451042488" to="440765420#2" />
    <trip id="94" depart="4.7" from="445078264" to="440881635" />
    <trip id="95" depart="4.75" from="248283749" to="442010286" />
    <trip id="96" depart="4.8" from="250274117#1" to="462138644#2" />
    <trip id="97" depart="4.85" from="448781892" to="448786344" />
    <trip id="98" depart="4.9" from="232602662" to="334124305#1" />
    <trip id="99" depart="4.95" from="40016211" to="456541503" />
    <trip id="100" depart="5.0" from="440881631" to="248282336#0" />
    <trip id="101" depart="5.05" from="444149841" to="-29141189#2" />
    <trip id="102" depart="5.1" from="-29140830#3" to="322629006#0" />
    <trip id="103" depart="5.15" from="40016198" to="444232017#0" />
    <trip id="104" depart="5.2" from="442084725#2" to="29141057#1" />
    <trip id="105" depart="5.25" from="440881634#1" to="440769428" />
    <trip id="106" depart="5.3" from="247429030#1" to="440769424" />
    <trip id="107" depart="5.35" from="233337679" to="440881629#1" />
    <trip id="108" depart="5.4" from="440769417" to="444232018#6" />
    <trip id="109" depart="5.45" from="224732386" to="243319597" />
    <trip id="110" depart="5.5" from="29140830#2" to="440771230#0" />
    <trip id="111" depart="5.55" from="453717290" to="184740438#1" />
    <trip id="112" depart="5.6" from="448790072" to="445014536#0" />
    <trip id="113" depart="5.65" from="-440881469#0" to="444422638#2" />
    <trip id="114" depart="5.7" from="440063026#1" to="-29141189#0" />
    <trip id="115" depart="5.75" from="312565418" to="475301476" />
    <trip id="116" depart="5.8" from="442014420#0" to="444149842" />
    <trip id="117" depart="5.85" from="441943777" to="440769424" />
    <trip id="118" depart="5.9" from="206608466#1" to="462138646" />
    <trip id="119" depart="5.95" from="440062732#0" to="440771237" />
    <trip id="120" depart="6.0" from="248407684#1" to="184740438#0" />
    <trip id="121" depart="6.05" from="440897023#1" to="29141670#1" />
    <trip id="122" depart="6.1" from="449880708#2" to="-206608466#0" />
    <trip id="123" depart="6.15" from="248282332#1" to="334124305#1" />
    <trip id="124" depart="6.2" from="312565418" to="102596672" />
    <trip id="125" depart="6.25" from="29165238#1" to="457885320#6" />
    <trip id="126" depart="6.3" from="199898038#0" to="458084591#0" />
    <trip id="127" depart="6.35" from="458696110#2" to="27318126#1" />
    <trip id="128" depart="6.4" from="444428461#1" to="439965069#1" />
    <trip id="129" depart="6.45" from="462138644#2" to="27318112#5" />
    <trip id="130" depart="6.5" from="-444418076#2" to="27318112#9" />
    <trip id="131" depart="6.55" from="199897219" to="458699294#1" />
    <trip id="132" depart="6.6" from="298344724" to="444419547" />
    <trip id="133" depart="6.65" from="-440881469#0" to="27318112#3" />
    <trip id="134" depart="6.7" from="444420600" to="462131778#1" />
    <trip id="135" depart="6.75" from="312565415#0" to="450614678#0" />
    <trip id="136" depart="6.8" from="440881629#3" to="45838048#0" />
    <trip id="137" depart="6.85" from="334124305#1" to="440881563" />
    <trip id="138" depart="6.9" from="450175545" to="444418077" />
    <trip id="139" depart="6.95" from="442014418#1" to="233525478" />
    <trip id="140" depart="7.0" from="194344114#0" to="-411044293" />
    <trip id="141" depart="7.05" from="-29140830#0" to="248407683" />
    <trip id="142" depart="7.1" from="45838048#1" to="444014979#2" />
    <trip id="143" depart="7.15" from="27318117" to="440897026#1" />
    <trip id="144" depart="7.2" from="-232602663#1" to="-322629017#0" />
    <trip id="145" depart="7.25" from="298344724" to="-29141189#0" />
    <trip id="146" depart="7.3" from="440881635" to="444149841" />
    <trip id="147" depart="7.35" from="444422734" to="444126141" />
    <trip id="148" depart="7.4" from="-359990752#1" to="440881631" />
    <trip id="149" depart="7.45" from="45838048#0" to="444014977#1" />
    <trip id="150" depart="7.5" from="247429032#1" to="199898038#2" />
    <trip id="151" depart="7.55" from="188246593" to="444126149" />
    <trip id="152" depart="7.6" from="440769424" to="248283748" />
    <trip id="153" depart="7.65" from="442084739" to="248282332#2" />
    <trip id="154" depart="7.7" from="228123843" to="442084733#0" />
    <trip id="155" depart="7.75" from="475301476" to="442359395" />
    <trip id="156" depart="7.8" from="453717289#1" to="440062732#0" />
    <trip id="157" depart="7.85" from="442014418#1" to="449070496" />
    <trip id="158" depart="7.9" from="442087558#1" to="451042488" />
    <trip id="159" depart="7.95" from="29140969#1" to="232967181#1" />
    <trip id="160" depart="8.0" from="-456382186#0" to="206608466#0" />
    <trip id="161" depart="8.05" from="334124302#0" to="445014534" />
    <trip id="162" depart="8.1" from="440881471#0" to="442084732#1" />
    <trip id="163" depart="8.15" from="-29141817" to="29141057#1" />
    <trip id="164" depart="8.2" from="228124190" to="444418080" />
    <trip id="165" depart="8.25" from="-232602658#1" to="442084733#0" />
    <trip id="166" depart="8.3" from="440044936#2" to="411044293" />
    <trip id="167" depart="8.35" from="247429030#0" to="-444418076#0" />
    <trip id="168" depart="8.4" from="334124305#2" to="-29141057#1" />
    <trip id="169" depart="8.45" from="232602661#1" to="45838048#0" />
    <trip id="170" depart="8.5" from="29141762" to="458696110#1" />
    <trip id="171" depart="8.55" from="450175545" to="443987645#1" />
    <trip id="172" depart="8.6" from="444422644" to="-440881469#1" />
    <trip id="173" depart="8.65" from="441997996" to="449785729" />
    <trip id="174" depart="8.7" from="445014537#1" to="462138645#1" />
    <trip id="175" depart="8.75" from="440881629#5" to="453294516#0" />
    <trip id="176" depart="8.8" from="444428461#2" to="450614676" />
    <trip id="177" depart="8.85" from="457886989" to="440897382#2" />
    <trip id="178" depart="8.9" from="444126139" to="440881637" />
    <trip id="179" depart="8.95" from="440881631" to="440044936#3" />
    <trip id="180" depart="9.0" from="248282332#0" to="453717287" />
    <trip id="181" depart="9.05" from="444346472#0" to="40016208" />
    <trip id="182" depart="9.1" from="184740438#0" to="443987646" />
    <trip id="183" depart="9.15" from="450614676" to="458699294#0" />
    <trip id="184" depart="9.2" from="444126144#1" to="233809679#1" />
    <trip id="185" depart="9.25" from="-444418076#1" to="458084591#1" />
    <trip id="186" depart="9.3" from="440044936#1" to="458696120#1" />
    <trip id="187" depart="9.35" from="440881629#5" to="248407680" />
    <trip id="188" depart="9.4" from="444346472#0" to="440881562#0" />
    <trip id="189" depart="9.45" from="29118093#0" to="-29141057#1" />
    <trip id="190" depart="9.5" from="440769422" to="442087558#2" />
    <trip id="191" depart="9.55" from="440881632#0" to="444428461#2" />
    <trip id="192" depart="9.6" from="450920619#1" to="-440881469#1" />
    <trip id="193" depart="9.65" from="248283748" to="440771222" />
    <trip id="194" depart="9.7" from="440897382#1" to="29165179" />
    <trip id="195" depart="9.75" from="442087559" to="27318112#8" />
    <trip id="196" depart="9.8" from="440765420#0" to="250274117#2" />
    <trip id="197" depart="9.85" from="444422640#1" to="462138646" />
    <trip id="198" depart="9.9" from="453717289#0" to="440881469#2" />
    <trip id="199" depart="9.95" from="444428465#0" to="457885320#0" />
    <trip id="200" depart="10.0" from="248407680" to="442084725#2" />
    <trip id="201" depart="10.05" from="-411044293" to="444018069#0" />
    <trip id="202" depart="10.1" from="444428461#2" to="-184740438#0" />
    <trip id="203" depart="10.15" from="458084591#1" to="-322629017#1" />
    <trip id="204" depart="10.2" from="29140830#0" to="444433525#0" />
    <trip id="205" depart="10.25" from="458699294#0" to="445078261#1" />
    <trip id="206" depart="10.3" from="248407674#1" to="-29141189#2" />
    <trip id="207" depart="10.35" from="194344105" to="444351851" />
    <trip id="208" depart="10.4" from="444420600" to="232796360#0" />
    <trip id="209" depart="10.45" from="188246611#0" to="199898039" />
    <trip id="210" depart="10.5" from="233809685" to="188246611#1" />
    <trip id="211" depart="10.55" from="456384919" to="444418083" />
    <trip id="212" depart="10.6" from="442016278" to="442016279#1" />
    <trip id="213" depart="10.65" from="453717289#1" to="441997995#2" />
    <trip id="214" depart="10.7" from="444418081" to="457885320#4" />
    <trip id="215" depart="10.75" from="450926204" to="444014979#0" />
    <trip id="216" depart="10.8" from="442232082#2" to="199898411" />
    <trip id="217" depart="10.85" from="448786345" to="248407684#2" />
    <trip id="218" depart="10.9" from="440771224" to="450614677" />
    <trip id="219" depart="10.95" from="444428461#1" to="206608437" />
    <trip id="220" depart="11.0" from="444419548" to="-29140969#1" />
    <trip id="221" depart="11.05" from="29140830#2" to="440769437" />
    <trip id="222" depart="11.1" from="440881562#0" to="440881629#3" />
    <trip id="223" depart="11.15" from="224732386" to="188246591" />
    <trip id="224" depart="11.2" from="29140830#1" to="440881636#0" />
    <trip id="225" depart="11.25" from="440897034#0" to="443987645#2" />
    <trip id="226" depart="11.3" from="442232083" to="29142233" />
    <trip id="227" depart="11.35" from="457885320#5" to="248407684#2" />
    <trip id="228" depart="11.4" from="440881469#0" to="458699294#0" />
    <trip id="229" depart="11.45" from="232602810" to="27318117" />
    <trip id="230" depart="11.5" from="29141817" to="119029072" />
    <trip id="231" depart="11.55" from="440769433" to="248407674#1" />
    <trip id="232" depart="11.6" from="402932403#1" to="442087558#2" />
    <trip id="233" depart="11.65" from="444418079" to="-29141189#0" />
    <trip id="234" depart="11.7" from="442084730#1" to="457885320#4" />
    <trip id="235" depart="11.75" from="442084733#1" to="243319591" />
    <trip id="236" depart="11.8" from="458084591#1" to="442087558#1" />
    <trip id="237" depart="11.85" from="248284668" to="444433525#2" />
    <trip id="238" depart="11.9" from="440881630" to="440771230#1" />
    <trip id="239" depart="11.95" from="445014537#1" to="444418080" />
    <trip id="240" depart="12.0" from="444422644" to="440897026#2" />
    <trip id="241" depart="12.05" from="440769422" to="334124302#2" />
    <trip id="242" depart="12.1" from="440881635" to="441997991#0" />
    <trip id="243" depart="12.15" from="248284676" to="449070493#0" />
    <trip id="244" depart="12.2" from="444232018#8" to="29141762" />
    <trip id="245" depart="12.25" from="312565414" to="444126149" />
    <trip id="246" depart="12.3" from="440769410" to="-455096004#0" />
    <trip id="247" depart="12.35" from="250274117#1" to="199898038#0" />
    <trip id="248" depart="12.4" from="80912591#0" to="-29141189#0" />
    <trip id="249" depart="12.45" from="334124302#2" to="440062732#1" />
    <trip id="250" depart="12.5" from="233337676" to="194344114#1" />
    <trip id="251" depart="12.55" from="444433525#2" to="442087558#0" />
    <trip id="252" depart="12.6" from="27318126#1" to="119029073" />
    <trip id="253" depart="12.65" from="445078263" to="444422638#1" />
    <trip id="254" depart="12.7" from="322629017#0" to="444418076#1" />
    <trip id="255" depart="12.75" from="453717289#0" to="442016280" />
    <trip id="256" depart="12.8" from="440044936#2" to="448786343" />
    <trip id="257" depart="12.85" from="29118096" to="-29142233" />
    <trip id="258" depart="12.9" from="40016195" to="-455096004#1" />
    <trip id="259" depart="12.95" from="444014976" to="456382543" />
    <trip id="260" depart="13.0" from="442085400" to="442014417" />
    <trip id="261" depart="13.05" from="-45838048#1" to="-199898411" />
    <trip id="262" depart="13.1" from="456540544" to="444126140" />
    <trip id="263" depart="13.15" from="27318126#0" to="184740438#2" />
    <trip id="264" depart="13.2" from="444232017#0" to="184738717" />
    <trip id="265" depart="13.25" from="312565415#1" to="445014537#0" />
    <trip id="266" depart="13.3" from="457885320#6" to="27318112#7" />
    <trip id="267" depart="13.35" from="-440881469#0" to="457885320#4" />
    <trip id="268" depart="13.4" from="248284670" to="440769435" />
    <trip id="269" depart="13.45" from="440881469#0" to="27318112#7" />
    <trip id="270" depart="13.5" from="442084739" to="440881470#1" />
    <trip id="271" depart="13.55" from="298344724" to="27318126#2" />
    <trip id="272" depart="13.6" from="194344119#0" to="443987642" />
    <trip id="273" depart="13.65" from="442014419#1" to="444018067" />
    <trip id="274" depart="13.7" from="29118093#5" to="206608466#0" />
    <trip id="275" depart="13.75" from="444126142" to="194344119#1" />
    <trip id="276" depart="13.8" from="444428465#1" to="442014417" />
    <trip id="277" depart="13.85" from="440881470#1" to="233525478" />
    <trip id="278" depart="13.9" from="442084733#0" to="248282336#0" />
    <trip id="279" depart="13.95" from="442084733#0" to="-45838048#1" />
    <trip id="280" depart="14.0" from="462138644#1" to="-455096004#2" />
    <trip id="281" depart="14.05" from="440765420#2" to="440897026#0" />
    <trip id="282" depart="14.1" from="233337676" to="243320230" />
    <trip id="283" depart="14.15" from="248407678" to="440897382#1" />
    <trip id="284" depart="14.2" from="243319591" to="444018067" />
    <trip id="285" depart="14.25" from="444418081" to="457886991" />
    <trip id="286" depart="14.3" from="-29140830#1" to="444018067" />
    <trip id="287" depart="14.35" from="194344105" to="444428463#2" />
    <trip id="288" depart="14.4" from="444126143" to="445046636" />
    <trip id="289" depart="14.45" from="439905479" to="320159746" />
    <trip id="290" depart="14.5" from="442016281" to="440897026#2" />
    <trip id="291" depart="14.55" from="444126146" to="406977632#1" />
    <trip id="292" depart="14.6" from="199898039" to="27318112#8" />
    <trip id="293" depart="14.65" from="440881471#0" to="403907823" />
    <trip id="294" depart="14.7" from="449070493#1" to="232602654" />
    <trip id="295" depart="14.75" from="457885321" to="248282334#0" />
    <trip id="296" depart="14.8" from="450175545" to="440046811" />
    <trip id="297" depart="14.85" from="445014534" to="444418081" />
    <trip id="298" depart="14.9" from="29141189#2" to="-375664226" />
    <trip id="299" depart="14.95" from="456540544" to="451041314#1" />
    <trip id="300" depart="15.0" from="449880708#0" to="440897382#2" />
    <trip id="301" depart="15.05" from="-456382186#1" to="-29140969#2" />
    <trip id="302" depart="15.1" from="-199898411" to="322629017#1" />
    <trip id="303" depart="15.15" from="248407675" to="27318112#0" />
    <trip id="304" depart="15.2" from="228124190" to="444351851" />
    <trip id="305" depart="15.25" from="248282332#3" to="457886991" />
    <trip id="306" depart="15.3" from="322629006#1" to="446148167" />
    <trip id="307" depart="15.35" from="449070492" to="442014420#1" />
    <trip id="308" depart="15.4" from="440881471#1" to="247429032#0" />
    <trip id="309" depart="15.45" from="449785727#0" to="442087558#2" />
    <trip id="310" depart="15.5" from="312565414" to="443987641#1" />
    <trip id="311" depart="15.55" from="444422640#0" to="29118093#5" />
    <trip id="312" depart="15.6" from="29141057#1" to="444420600" />
    <trip id="313" depart="15.65" from="440897023#0" to="444126149" />
    <trip id="314" depart="15.7" from="439905478#0" to="442016281" />
    <trip id="315" depart="15.75" from="442084734" to="444428461#1" />
    <trip id="316" depart="15.8" from="228124192" to="440771224" />
    <trip id="317" depart="15.85" from="444149841" to="-427774900" />
    <trip id="318" depart="15.9" from="450920619#1" to="440881636#1" />
    <trip id="319" depart="15.95" from="453297326" to="440881471#0" />
    <trip id="320" depart="16.0" from="228124191" to="455096004#1" />
    <trip id="321" depart="16.05" from="444126142" to="442087558#2" />
    <trip id="322" depart="16.1" from="440769424" to="445014536#1" />
    <trip id="323" depart="16.15" from="298344724" to="188246611#0" />
    <trip id="324" depart="16.2" from="444422638#1" to="232602658#1" />
    <trip id="325" depart="16.25" from="248282334#0" to="442084733#1" />
    <trip id="326" depart="16.3" from="462131779" to="449070493#1" />
    <trip id="327" depart="16.35" from="456384919" to="456382186#0" />
    <trip id="328" depart="16.4" from="440881636#0" to="448790072" />
    <trip id="329" depart="16.45" from="442087558#2" to="188246607" />
    <trip id="330" depart="16.5" from="451041313" to="441997991#0" />
    <trip id="331" depart="16.55" from="462138643" to="440881562#0" />
    <trip id="332" depart="16.6" from="458696120#0" to="29141057#2" />
    <trip id="333" depart="16.65" from="445014535" to="448781893#0" />
    <trip id="334" depart="16.7" from="475301477" to="442359395" />
    <trip id="335" depart="16.75" from="29118096" to="27318126#2" />
    <trip id="336" depart="16.8" from="442232083" to="334124305#0" />
    <trip id="337" depart="16.85" from="440769440" to="444418079" />
    <trip id="338" depart="16.9" from="450614677" to="444433525#0" />
    <trip id="339" depart="16.95" from="444014977#0" to="444419547" />
    <trip id="340" depart="17.0" from="29141762" to="448786344" />
    <trip id="341" depart="17.05" from="-455096004#2" to="458696120#1" />
    <trip id="342" depart="17.1" from="334124305#0" to="462131778#0" />
    <trip id="343" depart="17.15" from="-411044293" to="462138645#1" />
    <trip id="344" depart="17.2" from="444126142" to="442014418#1" />
    <trip id="345" depart="17.25" from="440774131" to="29141189#2" />
    <trip id="346" depart="17.3" from="440771237" to="-29141189#2" />
    <trip id="347" depart="17.35" from="475301084" to="248407678" />
    <trip id="348" depart="17.4" from="456540545" to="27318126#3" />
    <trip id="349" depart="17.45" from="194344119#1" to="224934251#0" />
    <trip id="350" depart="17.5" from="233337676" to="444418076#2" />
    <trip id="351" depart="17.55" from="443987645#0" to="27318112#1" />
    <trip id="352" depart="17.6" from="442084732#1" to="444232018#3" />
    <trip id="353" depart="17.65" from="458699294#0" to="444126149" />
    <trip id="354" depart="17.7" from="27318112#8" to="29140830#2" />
    <trip id="355" depart="17.75" from="456384921" to="312565418" />
    <trip id="356" depart="17.8" from="442016278" to="445014536#0" />
    <trip id="357" depart="17.85" from="444014977#1" to="448786344" />
    <trip id="358" depart="17.9" from="232602661#0" to="440774133" />
    <trip id="359" depart="17.95" from="29141094" to="440881634#1" />
    <trip id="360" depart="18.0" from="456541502" to="457886987" />
    <trip id="361" depart="18.05" from="27318112#4" to="441997995#1" />
    <trip id="362" depart="18.1" from="188246609" to="444018067" />
    <trip id="363" depart="18.15" from="445014534" to="-45838048#0" />
    <trip id="364" depart="18.2" from="444018067" to="453294516#0" />
    <trip id="365" depart="18.25" from="450926204" to="453717289#1" />
    <trip id="366" depart="18.3" from="29118093#4" to="440897034#0" />
    <trip id="367" depart="18.35" from="440881636#0" to="457885320#0" />
    <trip id="368" depart="18.4" from="446148169" to="-29142233" />
    <trip id="369" depart="18.45" from="444243642#1" to="440769424" />
    <trip id="370" depart="18.5" from="440881630" to="444422638#0" />
    <trip id="371" depart="18.55" from="199898038#0" to="456382543" />
    <trip id="372" depart="18.6" from="451042486" to="444418078" />
    <trip id="373" depart="18.65" from="442014420#0" to="375664226" />
    <trip id="374" depart="18.7" from="442016278" to="444422638#1" />
    <trip id="375" depart="18.75" from="440897028#0" to="443987645#0" />
    <trip id="376" depart="18.8" from="29165179" to="442016278" />
    <trip id="377" depart="18.85" from="449785727#0" to="228124193" />
    <trip id="378" depart="18.9" from="442084739" to="444422638#2" />
    <trip id="379" depart="18.95" from="-411044293" to="443987645#0" />
    <trip id="380" depart="19.0" from="450614676" to="462138643" />
    <trip id="381" depart="19.05" from="440881471#1" to="442084732#1" />
    <trip id="382" depart="19.1" from="440771230#1" to="462138643" />
    <trip id="383" depart="19.15" from="443987641#1" to="-248407683" />
    <trip id="384" depart="19.2" from="232602662" to="188246611#1" />
    <trip id="385" depart="19.25" from="440881629#4" to="228124193" />
    <trip id="386" depart="19.3" from="102596674" to="27318126#3" />
    <trip id="387" depart="19.35" from="475301477" to="-184740438#0" />
    <trip id="388" depart="19.4" from="440881630" to="440771220" />
    <trip id="389" depart="19.45" from="-455096004#1" to="444018069#1" />
    <trip id="390" depart="19.5" from="232967182#1" to="457885320#4" />
    <trip id="391" depart="19.55" from="445014535" to="448790074" />
    <trip id="392" depart="19.6" from="-232602663#0" to="440897030#1" />
    <trip id="393" depart="19.65" from="232602663#1" to="444018067" />
    <trip id="394" depart="19.7" from="312565415#0" to="-199898411" />
    <trip id="395" depart="19.75" from="458084591#1" to="440881637" />
    <trip id="396" depart="19.8" from="-206608466#1" to="456541503" />
    <trip id="397" depart="19.85" from="442016277" to="449070496" />
    <trip id="398" depart="19.9" from="-320159746" to="475301477" />
    <trip id="399" depart="19.95" from="444232018#5" to="248407678" />
    <trip id="400" depart="20.0" from="440765420#2" to="456382543" />
    <trip id="401" depart="20.05" from="443987646" to="-29140830#3" />
    <trip id="402" depart="20.1" from="440769445" to="248407682" />
    <trip id="403" depart="20.15" from="440771228" to="462138644#0" />
    <trip id="404" depart="20.2" from="440771220" to="-29141057#1" />
    <trip id="405" depart="20.25" from="439905478#1" to="455096004#2" />
    <trip id="406" depart="20.3" from="453717290" to="-29141817" />
    <trip id="407" depart="20.35" from="27318117" to="444232018#6" />
    <trip id="408" depart="20.4" from="29140830#3" to="184739533" />
    <trip id="409" depart="20.45" from="458696117" to="248282332#2" />
    <trip id="410" depart="20.5" from="449880708#0" to="440881636#1" />
    <trip id="411" depart="20.55" from="442084739" to="450920619#0" />
    <trip id="412" depart="20.6" from="29141057#1" to="440044936#0" />
    <trip id="413" depart="20.65" from="442010289" to="-29140969#1" />
    <trip id="414" depart="20.7" from="445078262" to="-322629017#0" />
    <trip id="415" depart="20.75" from="29141057#2" to="-29141057#0" />
    <trip id="416" depart="20.8" from="-29140969#1" to="248282334#2" />
    <trip id="417" depart="20.85" from="440771233" to="444126149" />
    <trip id="418" depart="20.9" from="441997995#1" to="248284668" />
    <trip id="419" depart="20.95" from="462138647" to="445014536#1" />
    <trip id="420" depart="21.0" from="442084725#1" to="248407676" />
    <trip id="421" depart="21.05" from="233809686" to="441997996" />