<?xml version="1.0" encoding="UTF-8"?>

<!-- generated on 02/22/17 21:37:50 by SUMO duarouter Version 0.24.0
<?xml version="1.0" encoding="UTF-8"?>

<configuration xmlns:xsi="http://www.w3.org/2001/XMLSchema-instance" xsi:noNamespaceSchemaLocation="http://sumo.dlr.de/xsd/duarouterConfiguration.xsd">

    <input>
        <net-file value="input_net.net.xml"/>
        <trip-files value="trips.trips.xml"/>
    </input>

    <output>
        <output-file value="routes.rou.xml"/>
    </output>

</configuration>
-->

<routes xmlns:xsi="http://www.w3.org/2001/XMLSchema-instance" xsi:noNamespaceSchemaLocation="http://sumo.dlr.de/xsd/routes_file.xsd">
    <vehicle id="0" depart="0.00">
        <route edges="369 468#0 468#1 449#0 449#1 456 389#0 51 46 675 668 618 659 656 617 566#0 566#1 566#2 566#3 649#0 649#1 649#2 649#3 649#4 649#5 486 488#2 490#0 490#1"/>
    </vehicle>
    <vehicle id="1" depart="0.05">
        <route edges="544#0 544#1 554#1 554#2 647 626 617 655 654 673 668 24#0 24#1 570#0 570#1 438#0 438#1 384 429#0 429#1 437 110 356#0 -321#1 355#1 -388#3 -388#2"/>
    </vehicle>
    <vehicle id="2" depart="0.10">
        <route edges="362 398#1 398#2 605#2 4 665#0 563 662#0"/>
    </vehicle>
    <vehicle id="3" depart="0.15">
        <route edges="655 654 53 485#4 485#5 485#6 485#7 485#8 485#9 590 591#0 528"/>
    </vehicle>
    <vehicle id="4" depart="0.20">
        <route edges="401 403#0 403#1 433#0 433#1 646 406#0 406#1 611 467#0"/>
    </vehicle>
    <vehicle id="5" depart="0.25">
        <route edges="12 -12 586#1 586#2 654 673 668 24#0 24#1 570#0 570#1 438#0 438#1 384 429#0 429#1 437 440 601 70#0 -299#1 -332#1 -332#0 316#1 232"/>
    </vehicle>
    <vehicle id="6" depart="0.30">
        <route edges="416 455#0 455#1 455#2 460 439 579 382 443 660 473 444 661#0 661#1 661#2 429#0 429#1 437 440 601 573 39"/>
    </vehicle>
    <vehicle id="7" depart="0.35">
        <route edges="74 71 493 494#0 494#1 506#0 506#1 506#2 607 522 523 609 536 666#0 666#1 650 525#0 525#1 380 404#0 404#1 404#2 433#0 433#1 646 394 407 643 398#0 398#1 398#2 605#2 4 665#0 665#1 561"/>
    </vehicle>
    <vehicle id="8" depart="0.40">
        <route edges="478#0 410#1 645 613#0 613#1 415 455#0 455#1 455#2 460 439 579 382 443 660 473 444 661#0 661#1"/>
    </vehicle>
    <vehicle id="9" depart="0.45">
        <route edges="-8#0 649#4 649#5 486 488#2 488#3 488#4 488#5 488#6 652 586#0 586#1 586#2 654 673 668 24#0 24#1 570#0 570#1 438#0 438#1 384 429#0 429#1 437 110 356#0 -321#1"/>
    </vehicle>
    <vehicle id="10" depart="0.50">
        <route edges="362 398#1 398#2 605#2 4 435 431#0 431#1 432#0 432#1 455#0 455#1 455#2 460 439 579 382 443 660 473 444 661#0"/>
    </vehicle>
    <vehicle id="11" depart="0.55">
        <route edges="25 441#1 539 469#0 469#1"/>
    </vehicle>
    <vehicle id="12" depart="0.60">
        <route edges="-87#0 -551#2 -551#1 555#3 555#4 666#0 666#1 650 525#0 525#1 380 404#0 404#1 432#1 455#0 455#1 455#2 460 456 389#0 51 46 675"/>
    </vehicle>
    <vehicle id="13" depart="0.65">
        <route edges="-378#1 56#1 613#1 409#0 409#1 379 19 652 586#0 586#1 549#1 566#1 566#2 566#3 649#0 649#1 649#2 649#3 649#4 649#5 486 488#2"/>
    </vehicle>
    <vehicle id="14" depart="0.70">
        <route edges="25 441#1 539 469#0 469#1 469#2 468#0 468#1 449#0 449#1 456 389#0 51 46 675 668 618 659 658 627 630 669#0 669#1 669#2 651 568 67#0"/>
    </vehicle>
    <vehicle id="15" depart="0.75">
        <route edges="412 466#1 76 40 471#0 471#1 471#2 472#0 470 469#2 468#0 468#1 449#0 454 457#1 459#0 459#1 452"/>
    </vehicle>
    <vehicle id="16" depart="0.80">
        <route edges="488#4 488#5 15#0 15#1 525#1 380 404#0 404#1 404#2 433#0 433#1 646 394 407 643 396 399"/>
    </vehicle>
    <vehicle id="17" depart="0.85">
        <route edges="-87#2 -87#1 -87#0 -551#2 -551#1 555#3 555#4 667 554#0 554#1 554#2 647 626 617 655 654 673 668 24#0 10"/>
    </vehicle>
    <vehicle id="18" depart="0.90">
        <route edges="582 30#0 30#1 30#2 508#0 508#1 521 609 536 666#0 666#1 650 516#0 516#1 517 528 529 422 527 526#0 526#1 526#2 526#3 526#4 526#5 526#6"/>
    </vehicle>
    <vehicle id="19" depart="0.95">
        <route edges="578 389#0 389#1 581 417 457#0 457#1 459#0 56#0 56#1"/>
    </vehicle>
    <vehicle id="20" depart="1.00">
        <route edges="498#0 504 503 571#0 571#1 571#2 629 505#0 505#1 570#0 570#1 438#0 438#1 383 576 578 389#0 389#1 581 408#0 408#1 408#2 397#0 397#1 404#1 404#2 433#0 433#1 646 394 407 643 398#0 398#1"/>
    </vehicle>
    <vehicle id="21" depart="1.05">
        <route edges="438#1 575#0 575#1 443 660 442#0 442#1 371"/>
    </vehicle>
    <vehicle id="22" depart="1.10">
        <route edges="389#0 389#1 581 417 460 439"/>
    </vehicle>
    <vehicle id="23" depart="1.15">
        <route edges="405#0 462 -378#1 -56#0 459#1 452 468#1 449#0"/>
    </vehicle>
    <vehicle id="24" depart="1.20">
        <route edges="416 455#0 455#1 455#2 460 439 579 382 443 660 442#0 442#1 371"/>
    </vehicle>
    <vehicle id="25" depart="1.25">
        <route edges="418#0 418#1 425#1 22#0 22#1 358#1 358#2 621 444 661#0 661#1 661#2 429#0 429#1 437 440 601 70#0 70#1 604 603 505#0 23#0 23#1 659 656 617 566#0 566#1 566#2 566#3 649#0 649#1 649#2 649#3 649#4 649#5 565 538#3 555#0 -43"/>
    </vehicle>
    <vehicle id="26" depart="1.30">
        <route edges="533 30#2 508#0 508#1 610 624 606 594#0 594#1"/>
    </vehicle>
    <vehicle id="27" depart="1.35">
        <route edges="488#4 488#5 488#6 652 586#0 586#1 586#2 654 673 668 24#0 24#1 570#0 570#1 438#0 438#1 384 429#0 429#1 437 110 356#0 -321#1 355#1 -388#3 -388#2 -388#1 -388#0"/>
    </vehicle>
    <vehicle id="28" depart="1.40">
        <route edges="526#7 526#8 438#1 383 576 578 389#0 389#1 581 408#0 408#1 408#2 397#0 397#1 404#1 404#2 433#0 433#1 646 406#0 406#1 611"/>
    </vehicle>
    <vehicle id="29" depart="1.45">
        <route edges="669#1 42 68#1 68#2 647 626 617 655 654 52 50 616 581 408#0 57 526#5 13 14 16"/>
    </vehicle>
    <vehicle id="30" depart="1.50">
        <route edges="67#0 63 69#1 66 603 505#0 505#1 570#0 570#1 438#0 438#1 383 576 578 389#0 389#1 581 417 457#0"/>
    </vehicle>
    <vehicle id="31" depart="1.55">
        <route edges="513 518 17 586#0 586#1 586#2 654 52 50 616 581 417 460 439 579 436 421 425#0 425#1 425#2"/>
    </vehicle>
    <vehicle id="32" depart="1.60">
        <route edges="404#1 432#1 455#0 455#1 455#2 460 439 579 382 443 660 473 444 661#0 661#1 661#2 429#0 429#1 437 349 426#0 426#1"/>
    </vehicle>
    <vehicle id="33" depart="1.65">
        <route edges="516#1 517 528 529 422 527 526#0 526#1 375 408#2 416 455#0 455#1 455#2"/>
    </vehicle>
    <vehicle id="34" depart="1.70">
        <route edges="410#1 645 613#0 613#1 381 433#0 433#1 646 394 407 643 398#0 398#1 398#2 605#2 4 665#0 665#1 561 560 562 538#0"/>
    </vehicle>
    <vehicle id="35" depart="1.75">
        <route edges="542#2 533 30#2 508#0 508#1 509 623#0 -307"/>
    </vehicle>
    <vehicle id="36" depart="1.80">
        <route edges="-546 549#0 549#1 566#1 566#2 566#3 649#0 649#1 649#2 649#3 649#4 649#5 565 538#3 598 542#0 542#1"/>
    </vehicle>
    <vehicle id="37" depart="1.85">
        <route edges="466#1 76 40 471#0 471#1 471#2 472#0 470 469#2 468#0 468#1 449#0 449#1 456 389#0 51 46 675 668 618 659 656 617 566#0 -549#1 -549#0 546 -546"/>
    </vehicle>
    <vehicle id="38" depart="1.90">
        <route edges="25 441#1 539 469#0 469#1 469#2 468#0 468#1 449#0 449#1 456 389#0 51 46 675 668 618 659 658 627 630 669#0 669#1 669#2 651 503 569 350#3 350#0"/>
    </vehicle>
    <vehicle id="39" depart="1.95">
        <route edges="459#0 56#0 56#1 613#1 409#0 409#1 379 19 653 592 301 671 543#0 543#1 543#2"/>
    </vehicle>
    <vehicle id="40" depart="2.00">
        <route edges="17 586#0 586#1 549#1 566#1 566#2 566#3 649#0 649#1 649#2 649#3 649#4 649#5 565 538#3 598 542#0 542#1 542#2 533 30#2 508#0"/>
    </vehicle>
    <vehicle id="41" depart="2.05">
        <route edges="566#3 649#0 649#1 649#2 649#3 649#4 649#5 565 538#3 598 542#0 542#1 542#2 533 30#2 497 500"/>
    </vehicle>
    <vehicle id="42" depart="2.10">
        <route edges="527 526#0 526#1 375 408#2 416 455#0 455#1 455#2 457#0 457#1 459#0 459#1 452 468#1"/>
    </vehicle>
    <vehicle id="43" depart="2.15">
        <route edges="358#2 621 444 661#0 661#1 661#2 429#0 429#1 437 110 356#0 -321#1 355#1 -388#3 -388#2 -388#1"/>
    </vehicle>
    <vehicle id="44" depart="2.20">
        <route edges="404#1 432#1 455#0 455#1 455#2 460 456 389#0 51 46 675 668 618 659 656 617 566#0 566#1 566#2 514"/>
    </vehicle>
    <vehicle id="45" depart="2.25">
        <route edges="24#1 570#0 570#1 438#0 438#1 575#0 575#1 443 660 442#0 469#1 469#2 482 477 405#0 405#1 405#2 368 479 471#0 471#1 471#2 472#0"/>
    </vehicle>
    <vehicle id="46" depart="2.30">
        <route edges="64 571#0 571#1 571#2 629 505#0 505#1 570#0 570#1 438#0 438#1 575#0 575#1 443 660 442#0 442#1 371 481 367 357"/>
    </vehicle>
    <vehicle id="47" depart="2.35">
        <route edges="68#0 68#1 68#2 647 626 617 655 654 52 50 616 581 408#0 408#1 408#2 416 455#0 455#1"/>
    </vehicle>
    <vehicle id="48" depart="2.40">
        <route edges="526#6 526#7 484 485#1 485#2 674 668 618 659"/>
    </vehicle>
    <vehicle id="49" depart="2.45">
        <route edges="493 494#0 494#1 506#0 506#1 506#2 507 594#1 594#2 68#0 68#1 68#2 647 626 617 655 654 673 668 24#0 24#1 570#0 570#1 438#0 438#1 575#0 575#1 443 660 473 444 661#0 661#1"/>
    </vehicle>
    <vehicle id="50" depart="2.50">
        <route edges="76 40 471#0 471#1 471#2 472#0 470 469#2 468#0 468#1 449#0 454 457#1 445 458"/>
    </vehicle>
    <vehicle id="51" depart="2.55">
        <route edges="-12 586#1 549#1 566#1 566#2 566#3 649#0 649#1 649#2 649#3 8#0 8#1 8#2"/>
    </vehicle>
    <vehicle id="52" depart="2.60">
        <route edges="518 588 592 301 671 543#0 543#1 -551#1 551#1"/>
    </vehicle>
    <vehicle id="53" depart="2.65">
        <route edges="526#1 375 408#2 397#0 409#1 379 19 653 592 301 671 543#0 543#1 551#2 551#3 508#1 610 624 606"/>
    </vehicle>
    <vehicle id="54" depart="2.70">
        <route edges="550#0 555#4 667 554#0 554#1 554#2 647 626"/>
    </vehicle>
    <vehicle id="55" depart="2.75">
        <route edges="449#0 449#1 456 389#0 51 46 675 668 618 659 658 627 630 669#0 669#1 669#2 651 503 569 350#3 350#0 501 493 494#0 494#1 506#0 506#1 506#2 520"/>
    </vehicle>
    <vehicle id="56" depart="2.80">
        <route edges="604 603 505#0 23#0 23#1 659 658 627 630 669#0 669#1 669#2 651 503 569 350#3 350#0 501"/>
    </vehicle>
    <vehicle id="57" depart="2.85">
        <route edges="451 450 449#0"/>
    </vehicle>
    <vehicle id="58" depart="2.90">
        <route edges="664#0 361 413#1 463#0 463#1 463#2 611 410#0 410#1 645 613#0 613#1 409#0 409#1 379 19 652 586#0 586#1 549#1 566#1 566#2 566#3 649#0 649#1 649#2 649#3 649#4 649#5 649#6 649#7 558#1"/>
    </vehicle>
    <vehicle id="59" depart="2.95">
        <route edges="406#1 611 410#0 410#1 645 613#0 613#1 409#0 409#1 379 19 653 592 301 671 543#0 543#1 543#2 543#3 543#4 542#0 542#1 542#2 533 30#2"/>
    </vehicle>
    <vehicle id="60" depart="3.00">
        <route edges="485#4 485#5 485#6 485#7 485#8 485#9 590 591#0 528 529 422 527 402 403#0 373 397#3 397#4 -96 -511"/>
    </vehicle>
    <vehicle id="61" depart="3.05">
        <route edges="-87#1 -87#0 -551#2 -551#1 555#3 555#4 666#0 92 649#1"/>
    </vehicle>
    <vehicle id="62" depart="3.10">
        <route edges="586#2 654 673 668 24#0 24#1 570#0 570#1 438#0 438#1 384 429#0 429#1 437 440 601"/>
    </vehicle>
    <vehicle id="63" depart="3.15">
        <route edges="620 366 359 369 482 477 405#0 462 -378#1 -56#0"/>
    </vehicle>
    <vehicle id="64" depart="3.20">
        <route edges="403#0 403#1 433#0 433#1 646 372 645 613#0 613#1 409#0 409#1 379 19 653 592 301 671 543#0"/>
    </vehicle>
    <vehicle id="65" depart="3.25">
        <route edges="-511 -9 488#4 488#5 515 649#1 649#2 649#3 649#4 649#5 486 488#2 490#0"/>
    </vehicle>
    <vehicle id="66" depart="3.30">
        <route edges="559 564 663 664#0 361 413#1 463#0 463#1 463#2 611 410#0 410#1 645 613#0 613#1 415 455#0 455#1 455#2 460 439 579 436 421 425#0"/>
    </vehicle>
    <vehicle id="67" depart="3.35">
        <route edges="649#3 649#4 649#5 486 488#2 488#3 488#4 488#5 488#6 652 586#0 586#1 586#2 654 52 50 616 581 408#0"/>
    </vehicle>
    <vehicle id="68" depart="3.40">
        <route edges="-65#0 -297 571#1 571#2 629 505#0 505#1 570#0 570#1 438#0 438#1 383 576 578 389#0 389#1 581 417 460 439"/>
    </vehicle>
    <vehicle id="69" depart="3.45">
        <route edges="408#2 397#0 409#1 379 19 653 592 301 672 593 615 623#0 623#1 623#2"/>
    </vehicle>
    <vehicle id="70" depart="3.50">
        <route edges="433#1 646 372 645 613#0 613#1 409#0 409#1 379 19 652 586#0 586#1 586#2 654 673 668 618 659 658"/>
    </vehicle>
    <vehicle id="71" depart="3.55">
        <route edges="67#0 63 69#1 66 603 505#0 23#0 23#1 659 656 617 566#0 566#1 566#2 566#3 649#0 649#1 649#2 649#3 649#4 649#5 486 488#2 490#0 -490#0"/>
    </vehicle>
    <vehicle id="72" depart="3.60">
        <route edges="232 356#0 -321#1 355#1 -388#3 -388#2 -388#1 -388#0 -35 386#0 386#1 423 576 578 389#0 51 46 675 668 618 659 658 627 628#0"/>
    </vehicle>
    <vehicle id="73" depart="3.65">
        <route edges="397#4 397#5 420 431#0 431#1 432#0 432#1 455#0 455#1 455#2 460 456 389#0"/>
    </vehicle>
    <vehicle id="74" depart="3.70">
        <route edges="431#0 431#1 432#0 432#1 455#0 455#1 455#2 457#0 457#1 459#0 459#1 452 468#1 449#0 454"/>
    </vehicle>
    <vehicle id="75" depart="3.75">
        <route edges="613#0 613#1 381 433#0 433#1 646 394 407 643 398#0 398#1 360 413#1"/>
    </vehicle>
    <vehicle id="76" depart="3.80">
        <route edges="514 586#0 586#1 586#2 654 673 668 24#0 24#1 570#0 570#1 438#0 438#1 384 429#0 429#1 437 440 601 70#0 -299#1 -332#1 -332#0"/>
    </vehicle>
    <vehicle id="77" depart="3.85">
        <route edges="594#0 594#1 502#0 544#0 670#3 672 593 615 623#0 623#1 623#2 496#0 496#1 496#2"/>
    </vehicle>
    <vehicle id="78" depart="3.90">
        <route edges="543#4 542#0 541 -87#2 -87#1 -87#0 -551#2 -551#1 555#3 555#4 666#0 666#1 650 525#0 525#1 380 404#0 404#1 404#2 433#0"/>
    </vehicle>
    <vehicle id="79" depart="3.95">
        <route edges="543#2 543#3 -8#1 555#2 555#3 555#4 666#0 666#1 650 525#0 525#1 380 404#0 404#1 404#2 433#0 94 637#1 431#1"/>
    </vehicle>
    <vehicle id="80" depart="4.00">
        <route edges="87#1 -87#1 -87#0 -551#2 -551#1 555#3 555#4 666#0 666#1 650 525#0"/>
    </vehicle>
    <vehicle id="81" depart="4.05">
        <route edges="-550#0 649#2 649#3 649#4 649#5 649#6 7 557#3 6 596#0 559 564 663 664#0"/>
    </vehicle>
    <vehicle id="82" depart="4.10">
        <route edges="389#1 581 408#0 408#1 408#2 397#0 397#1 397#2 397#3 -98 527 526#0"/>
    </vehicle>
    <vehicle id="83" depart="4.15">
        <route edges="478#1 478#2 407 643 398#0 398#1 398#2 605#2 4 665#0 665#1 561 560 562 538#0"/>
    </vehicle>
    <vehicle id="84" depart="4.20">
        <route edges="644 640 642 637#0 637#1 431#1 432#0 432#1 455#0 455#1 455#2 460 456 389#0 51 46 675 668 618 659 658 627 630 669#0 669#1 669#2 651 503 569 350#3 350#0 501"/>
    </vehicle>
    <vehicle id="85" depart="4.25">
        <route edges="605#0 413#0 413#1 463#0 463#1 463#2 611 410#0 410#1 645 613#0 613#1 409#0 409#1 379 19 653 592 301 672 519 594#0 594#1 594#2 498#0 498#1"/>
    </vehicle>
    <vehicle id="86" depart="4.30">
        <route edges="66 603 505#0 505#1 570#0 570#1 438#0 438#1 383 576 578 389#0 389#1 581 417 460 439"/>
    </vehicle>
    <vehicle id="87" depart="4.35">
        <route edges="487 609 543#0 543#1"/>
    </vehicle>
    <vehicle id="88" depart="4.40">
        <route edges="52 50 616 581 417 457#0 457#1"/>
    </vehicle>
    <vehicle id="89" depart="4.45">
        <route edges="437 440 601 70#0 70#1 604 603 505#0 505#1 570#0 570#1 438#0 438#1 383 576 578 389#0 389#1 581 408#0 408#1 408#2 397#0 397#1 397#2 397#3 397#4 397#5"/>
    </vehicle>
    <vehicle id="90" depart="4.50">
        <route edges="647 626 617 566#0 566#1 566#2 566#3 650 525#0 525#1 380 404#0 404#1 404#2 433#0 433#1 646 394 407 643 396"/>
    </vehicle>
    <vehicle id="91" depart="4.55">
        <route edges="654 52 50 616 581 417 460 439 579 382"/>
    </vehicle>
    <vehicle id="92" depart="4.60">
        <route edges="596#0 596#1 560 562 538#0 488#0 488#1 488#2 488#3 488#4 488#5 488#6 653 592 301 671 536 666#0"/>
    </vehicle>
    <vehicle id="93" depart="4.65">
        <route edges="321#0 355#1 -388#3 -388#2 388#2"/>
    </vehicle>
    <vehicle id="94" depart="4.70">
        <route edges="404#0 397#2 397#3 397#4 -96 -511 1#0 1#1"/>
    </vehicle>
    <vehicle id="95" depart="4.75">
        <route edges="506#2 607 522 523 609 536 666#0 666#1 650"/>
    </vehicle>
    <vehicle id="96" depart="4.80">
        <route edges="463#0 463#1 463#2 611 410#0 410#1 645 613#0 613#1 409#0 409#1 379 19 653 592"/>
    </vehicle>
    <vehicle id="97" depart="4.85">
        <route edges="398#1 360 413#1 463#0 463#1 463#2 611 410#0 410#1 645 613#0 613#1 409#0 409#1 379 19 653 592 554#0 -544#1 670#3"/>
    </vehicle>
    <vehicle id="98" depart="4.90">
        <route edges="669#2 651 503 571#0 571#1 537#0 537#1 537#2 670#0 670#1 670#2 670#3 671 543#0 543#1 -551#1"/>
    </vehicle>
    <vehicle id="99" depart="4.95">
        <route edges="23#1 659 656 617 566#0 566#1 566#2 566#3 649#0 649#1 649#2 551#0 551#1 551#2 551#3 508#1 509"/>
    </vehicle>
    <vehicle id="100" depart="5.00">
        <route edges="308 506#2 507 594#1 594#2 68#0 68#1 68#2 647 626"/>
    </vehicle>
    <vehicle id="101" depart="5.05">
        <route edges="447#1 471#2 472#0 470 469#2 468#0 468#1 449#0"/>
    </vehicle>
    <vehicle id="102" depart="5.10">
        <route edges="452 468#1 449#0 449#1 456 389#0 51 46 675 668 618 659 656 617 566#0 566#1 566#2 566#3 649#0 649#1 649#2 649#3 649#4 649#5 565 538#3 598 542#0 542#1 542#2 533 30#2 508#0"/>
    </vehicle>
    <vehicle id="103" depart="5.15">
        <route edges="385#0 385#1 429#0 429#1 437 440 601 70#0 70#1 604 603 505#0 23#0 23#1 659 656 617 566#0 566#1 566#2 44 592 301 672 519 594#0 594#1 594#2 68#0"/>
    </vehicle>
    <vehicle id="104" depart="5.20">
        <route edges="508#1 521 609 536 667 301 672 593"/>
    </vehicle>
    <vehicle id="105" depart="5.25">
        <route edges="652 586#0 12 552 590 591#0 591#1 591#2 488#5 488#6 653"/>
    </vehicle>
    <vehicle id="106" depart="5.30">
        <route edges="521 609 536 666#0 92 649#1 649#2 649#3 649#4 649#5 486 488#2 488#3"/>
    </vehicle>
    <vehicle id="107" depart="5.35">
        <route edges="24#1 570#0 570#1 485#0 485#1 485#2 485#3 485#4 545 549#0 549#1 566#1 566#2 566#3 649#0 649#1 649#2 649#3 649#4 649#5 565 538#3 598 542#0 542#1 542#2 534 532#0 557#0 557#1 558#0"/>
    </vehicle>
    <vehicle id="108" depart="5.40">
        <route edges="70#0 70#1 604 603 505#0 23#0 23#1 659 658 627 628#0 -105#1 -105#0"/>
    </vehicle>
    <vehicle id="109" depart="5.45">
        <route edges="57 526#5 526#6 526#7 526#8 438#1 383 576 578 389#0 389#1 581 408#0 408#1 408#2 397#0 397#1 397#2 397#3 397#4 -96"/>
    </vehicle>
    <vehicle id="110" depart="5.50">
        <route edges="600#1 348 601 70#0 70#1 604 603 505#0 505#1 570#0 570#1 438#0 438#1 383 576 578 389#0 389#1 581 408#0 408#1 408#2 397#0 397#1 404#1 404#2 433#0 94 -637#0"/>
    </vehicle>
    <vehicle id="111" depart="5.55">
        <route edges="662#0 662#1 662#2 663 664#0 361 413#1 463#0 463#1 395 407 643 398#0 398#1 398#2 605#2 4 665#0 665#1 561 560 597 596#0"/>
    </vehicle>
    <vehicle id="112" depart="5.60">
        <route edges="600#0 -332#0 316#1 348 601 70#0 70#1 604 603 505#0 23#0 23#1 659 656 617 566#0 566#1 566#2 44 592 301 672 519"/>
    </vehicle>
    <vehicle id="113" depart="5.65">
        <route edges="554#2 648 630 670#0 670#1 670#2 670#3 672 593 615 623#0 623#1 -306"/>
    </vehicle>
    <vehicle id="114" depart="5.70">
        <route edges="530#0 530#1 410#0 410#1 645 613#0 613#1 409#0 393 390 391 526#1 526#2 526#3 526#4 526#5 526#6 526#7 526#8 438#1 384 429#0 429#1 437 440 601 573 39"/>
    </vehicle>
    <vehicle id="115" depart="5.75">
        <route edges="627 630 670#0 68#2 647 626 617 566#0 -549#1 -549#0 546 485#6 485#7 485#8 485#9 590 591#0 591#1 591#2 488#5 488#6"/>
    </vehicle>
    <vehicle id="116" depart="5.80">
        <route edges="73 430 424 23#0 23#1 659 658 627 628#0 -105#1 105#1"/>
    </vehicle>
    <vehicle id="117" depart="5.85">
        <route edges="544#0 670#3 671 543#0 543#1 -551#1 -551#0"/>
    </vehicle>
    <vehicle id="118" depart="5.90">
        <route edges="-106#1 105#0 105#1 628#1 629 505#0 505#1 570#0 570#1 438#0 438#1 575#0 575#1 443"/>
    </vehicle>
    <vehicle id="119" depart="5.95">
        <route edges="-87#0 -551#2 -551#1 555#3 555#4 666#0 666#1 650 525#0 525#1 380 404#0 404#1 404#2 433#0 94 637#1 431#1"/>
    </vehicle>
    <vehicle id="120" depart="6.00">
        <route edges="459#2 477 405#0 405#1 405#2 370 613#0 613#1 409#0 409#1 379 19 653 592 301 671 543#0 543#1 543#2 543#3 543#4 542#0 542#1 542#2 533 30#2 508#0"/>
    </vehicle>
    <vehicle id="121" depart="6.05">
        <route edges="591#1 591#2 488#5 15#0 15#1 525#1 380 404#0 404#1 404#2 433#0 433#1 646 406#0 406#1 611 467#0 467#1 479 471#0 471#1 471#2 472#0 470"/>
    </vehicle>
    <vehicle id="122" depart="6.10">
        <route edges="485#5 485#6 485#7 485#8 485#9 590 591#0 528 529 422 527 402 403#0 403#1 433#0 433#1 646 406#0 406#1 611 410#0 478#1"/>
    </vehicle>
    <vehicle id="123" depart="6.15">
        <route edges="77#0 362 398#1 360 413#1 463#0 463#1 463#2"/>
    </vehicle>
    <vehicle id="124" depart="6.20">
        <route edges="-388#1 -388#0 -35 386#0 386#1 423 576 578 389#0 389#1 581 408#0 408#1 408#2 397#0 409#1 379 19 653 592 301 671 536"/>
    </vehicle>
    <vehicle id="125" depart="6.25">
        <route edges="70#0 70#1 604 603 505#0 23#0 23#1 659 656 617 566#0 566#1 566#2 44"/>
    </vehicle>
    <vehicle id="126" depart="6.30">
        <route edges="46 675 668 618 659 656 617 566#0 566#1 566#2 566#3 649#0"/>
    </vehicle>
    <vehicle id="127" depart="6.35">
        <route edges="-332#0 316#1 348 601 70#0 70#1 604 603 505#0 505#1 570#0 570#1 438#0 438#1 383 576 578 389#0 389#1 581 408#0 408#1 408#2 397#0 397#1 404#1 404#2 433#0 94 637#1 -637#1"/>
    </vehicle>
    <vehicle id="128" depart="6.40">
        <route edges="533 30#2 508#0 -551#3 -551#2 543#2 -341"/>
    </vehicle>
    <vehicle id="129" depart="6.45">
        <route edges="-544#1 670#3 671 536 666#0 666#1 650 525#0 525#1 380 404#0 404#1 404#2 433#0 433#1 646 394 407 643 396 399 400"/>
    </vehicle>
    <vehicle id="130" depart="6.50">
        <route edges="571#2 629 505#0 505#1 570#0 570#1 438#0 438#1 383 576 578 389#0 389#1 581 417 457#0 457#1 459#0 56#0 56#1 613#1"/>
    </vehicle>
    <vehicle id="131" depart="6.55">
        <route edges="560 562 538#0 488#0 488#1 488#2 488#3 488#4 488#5 15#0 516#1 517 591#1 591#2"/>
    </vehicle>
    <vehicle id="132" depart="6.60">
        <route edges="468#1 449#0 449#1 456 389#0 389#1 581 408#0 408#1 408#2 397#0 409#1 379 19 653 592 301 672 519 594#0"/>
    </vehicle>
    <vehicle id="133" depart="6.65">
        <route edges="-65#0 -297 571#1 571#2 629 505#0 23#0 23#1 659 656 617 566#0 -549#1 -549#0 546 485#6 485#7 485#8 485#9 590 591#0 528 529 422 527"/>
    </vehicle>
    <vehicle id="134" depart="6.70">
        <route edges="-34 662#2 663 664#0 361 413#1 412 466#1 76 40 471#0 471#1 471#2 472#0 470 469#2 482"/>
    </vehicle>
    <vehicle id="135" depart="6.75">
        <route edges="373 397#3 397#4 397#5 420 431#0 431#1 376 433#0"/>
    </vehicle>
    <vehicle id="136" depart="6.80">
        <route edges="544#1 -544#1 670#3 671 536 666#0 666#1 650 525#0 525#1 380 404#0 397#2 397#3 397#4 397#5 434 662#0 -634#2 -634#1 634#1"/>
    </vehicle>
    <vehicle id="137" depart="6.85">
        <route edges="402 403#0 403#1 433#0 433#1 646 372 645 613#0 613#1 409#0 409#1 379 19 652 586#0 586#1 549#1 566#1 566#2 566#3 650 516#0"/>
    </vehicle>
    <vehicle id="138" depart="6.90">
        <route edges="559 564 663 664#0 361 413#1 412 466#1 76"/>
    </vehicle>
    <vehicle id="139" depart="6.95">
        <route edges="404#2 433#0 433#1 646 372 645 613#0 613#1 409#0 409#1 379 19 652 586#0 586#1 549#1 566#1 566#2 566#3 649#0 649#1 649#2 649#3 649#4 649#5 649#6 7 557#3"/>
    </vehicle>
    <vehicle id="140" depart="7.00">
        <route edges="488#6 652 586#0 586#1 549#1 566#1 566#2 566#3 650 516#0 516#1 513"/>
    </vehicle>
    <vehicle id="141" depart="7.05">
        <route edges="404#0 404#1 432#1 455#0 455#1 455#2 460 456 389#0 389#1 581 408#0 408#1 408#2 397#0 409#1 379 19 653 592 301 671 536 666#0 92"/>
    </vehicle>
    <vehicle id="142" depart="7.10">
        <route edges="533 30#2 497 500 86 68#0 68#1 68#2 647 626 617 655 654 673 668 24#0 24#1 570#0 570#1 438#0 438#1 384 429#0 429#1 437 440 601 70#0 -299#1 -332#1 -332#0 316#1 232"/>
    </vehicle>
    <vehicle id="143" depart="7.15">
        <route edges="557#2 557#3 6 596#0 596#1 560 562 538#0 488#0 488#1 488#2 488#3 488#4 488#5 15#0 15#1 525#1 380 404#0 404#1 432#1 455#0 455#1 455#2 457#0 457#1 459#0 459#1 459#2 477 464 75 77#0 77#1"/>
    </vehicle>
    <vehicle id="144" depart="7.20">
        <route edges="526#0 526#1 375 408#2 397#0 397#1 404#1 404#2 433#0 433#1 646 406#0 406#1 611 467#0 467#1 479"/>
    </vehicle>
    <vehicle id="145" depart="7.25">
        <route edges="485#5 -546 549#0 549#1 566#1 -544#2"/>
    </vehicle>
    <vehicle id="146" depart="7.30">
        <route edges="409#1 379 19 652 586#0 586#1 586#2 654 52 50 616 581 417 457#0 457#1 459#0 56#0 -378#0"/>
    </vehicle>
    <vehicle id="147" depart="7.35">
        <route edges="670#3 672 593 615 623#0 623#1"/>
    </vehicle>
    <vehicle id="148" depart="7.40">
        <route edges="467#1 479 471#0 471#1 471#2 472#0 470 469#2 468#0 468#1 449#0 449#1 439 579 382 443 660 473 444 661#0 661#1 661#2 429#0 429#1 437 110 356#0 -321#1"/>
    </vehicle>
    <vehicle id="149" depart="7.45">
        <route edges="1#0 1#1 -9 488#4 488#5 488#6 652 586#0 586#1 586#2 654 673 668 24#0 24#1 570#0 570#1 438#0 438#1 575#0 575#1 443 660 473 444"/>
    </vehicle>
    <vehicle id="150" depart="7.50">
        <route edges="551#0 555#3 555#4 666#0 666#1 650 525#0"/>
    </vehicle>
    <vehicle id="151" depart="7.55">
        <route edges="70#0 70#1 604 603 505#0 23#0 23#1 659 656 617 566#0 566#1 566#2 44 592 301 672 519 594#0 594#1 594#2 498#0 504"/>
    </vehicle>
    <vehicle id="152" depart="7.60">
        <route edges="525#1 380 404#0 404#1 432#1 455#0 455#1 455#2 460 456 389#0 389#1 581 408#0 408#1 408#2 397#0 409#1 379 19 653 592 301 671 543#0 543#1 543#2 543#3 -8#1 -8#0"/>
    </vehicle>
    <vehicle id="153" depart="7.65">
        <route edges="506#2 507 594#1 594#2 498#0 504 503 571#0 571#1 537#0 -65#1"/>
    </vehicle>
    <vehicle id="154" depart="7.70">
        <route edges="485#3 485#4 545 549#0 549#1 566#1 566#2 44 592 301 671 543#0 -550#1 555#4"/>
    </vehicle>
    <vehicle id="155" depart="7.75">
        <route edges="591#0 528 529 422 527 526#0 526#1 375 408#2 416 455#0 455#1 455#2 457#0 457#1 459#0 459#1 459#2 477 464 75 77#0 77#1"/>
    </vehicle>
    <vehicle id="156" depart="7.80">
        <route edges="600#1 348 601 70#0 70#1 604 603 505#0 505#1 570#0 570#1 438#0 438#1 575#0 575#1 443 660 442#0 469#1 469#2 482 477 464"/>
    </vehicle>
    <vehicle id="157" depart="7.85">
        <route edges="-491 -490#0 488#3 488#4 488#5 515 649#1 649#2 649#3 8#0 8#1 8#2 -87#1"/>
    </vehicle>
    <vehicle id="158" depart="7.90">
        <route edges="513 518 17 586#0 586#1 549#1 566#1 566#2 566#3 649#0 649#1 649#2 649#3 649#4 649#5 486 488#2 488#3 9 -9"/>
    </vehicle>
    <vehicle id="159" depart="7.95">
        <route edges="571#1"/>
    </vehicle>
    <vehicle id="160" depart="8.00">
        <route edges="405#2 370 613#0 613#1 409#0 409#1 379 19 652 586#0 586#1 586#2 654 673 668 24#0 24#1 570#0 570#1 438#0"/>
    </vehicle>
    <vehicle id="161" depart="8.05">
        <route edges="591#0 591#1 591#2 488#5 515 649#1 649#2 649#3 649#4 649#5 649#6 649#7 558#1 558#2"/>
    </vehicle>
    <vehicle id="162" depart="8.10">
        <route edges="384 429#0 429#1 437 440 601 70#0 70#1 604 603 505#0 23#0 23#1 659 656 617 566#0 566#1 566#2 566#3 649#0 649#1 649#2 551#0 -551#0"/>
    </vehicle>
    <vehicle id="163" depart="8.15">
        <route edges="547 -12 586#1 586#2 654 673 668 24#0 24#1 570#0 570#1 438#0 438#1 384 429#0 429#1 437 110 356#0 356#1"/>
    </vehicle>
    <vehicle id="164" depart="8.20">
        <route edges="-388#1 -388#0 -35 386#0 386#1 423 576 578 389#0 389#1 581 408#0 57 526#5 526#6 526#7 526#8 438#1"/>
    </vehicle>
    <vehicle id="165" depart="8.25">
        <route edges="30#0 30#1 30#2 497 500 86 68#0 68#1 68#2 647 626 617 655 654 673 668 24#0 24#1 570#0 570#1 438#0 438#1 575#0 575#1 443 660"/>
    </vehicle>
    <vehicle id="166" depart="8.30">
        <route edges="488#1 488#2 488#3 9 1#0"/>
    </vehicle>
    <vehicle id="167" depart="8.35">
        <route edges="488#5 488#6 652 586#0 586#1 586#2 654 673 668 24#0 24#1 570#0 570#1 438#0 438#1"/>
    </vehicle>
    <vehicle id="168" depart="8.40">
        <route edges="-10 10 485#2 485#3 485#4 545 549#0 549#1 566#1 566#2 566#3 649#0 649#1 649#2 551#0 555#3"/>