<?xml version="1.0"?>
<trips>
    <trip id="0" depart="0.0" from="369" to="490#1" />
    <trip id="1" depart="0.05" from="544#0" to="-388#2" />
    <trip id="2" depart="0.1" from="362" to="662#0" />
    <trip id="3" depart="0.15" from="655" to="528" />
    <trip id="4" depart="0.2" from="401" to="467#0" />
    <trip id="5" depart="0.25" from="12" to="232" />
    <trip id="6" depart="0.3" from="416" to="39" />
    <trip id="7" depart="0.35" from="74" to="561" />
    <trip id="8" depart="0.4" from="478#0" to="661#1" />
    <trip id="9" depart="0.45" from="-8#0" to="-321#1" />
    <trip id="10" depart="0.5" from="362" to="661#0" />
    <trip id="11" depart="0.55" from="25" to="469#1" />
    <trip id="12" depart="0.6" from="-87#0" to="675" />
    <trip id="13" depart="0.65" from="-378#1" to="488#2" />
    <trip id="14" depart="0.7" from="25" to="67#0" />
    <trip id="15" depart="0.75" from="412" to="452" />
    <trip id="16" depart="0.8" from="488#4" to="399" />
    <trip id="17" depart="0.85" from="-87#2" to="10" />
    <trip id="18" depart="0.9" from="582" to="526#6" />
    <trip id="19" depart="0.95" from="578" to="56#1" />
    <trip id="20" depart="1.0" from="498#0" to="398#1" />
    <trip id="21" depart="1.05" from="438#1" to="371" />
    <trip id="22" depart="1.1" from="389#0" to="439" />
    <trip id="23" depart="1.15" from="405#0" to="449#0" />
    <trip id="24" depart="1.2" from="416" to="371" />
    <trip id="25" depart="1.25" from="418#0" to="-43" />
    <trip id="26" depart="1.3" from="533" to="594#1" />
    <trip id="27" depart="1.35" from="488#4" to="-388#0" />
    <trip id="28" depart="1.4" from="526#7" to="611" />
    <trip id="29" depart="1.45" from="669#1" to="16" />
    <trip id="30" depart="1.5" from="67#0" to="457#0" />
    <trip id="31" depart="1.55" from="513" to="425#2" />
    <trip id="32" depart="1.6" from="404#1" to="426#1" />
    <trip id="33" depart="1.65" from="516#1" to="455#2" />
    <trip id="34" depart="1.7" from="410#1" to="538#0" />
    <trip id="35" depart="1.75" from="542#2" to="-307" />
    <trip id="36" depart="1.8" from="-546" to="542#1" />
    <trip id="37" depart="1.85" from="466#1" to="-546" />
    <trip id="38" depart="1.9" from="25" to="350#0" />
    <trip id="39" depart="1.95" from="459#0" to="543#2" />
    <trip id="40" depart="2.0" from="17" to="508#0" />
    <trip id="41" depart="2.05" from="566#3" to="500" />
    <trip id="42" depart="2.1" from="527" to="468#1" />
    <trip id="43" depart="2.15" from="358#2" to="-388#1" />
    <trip id="44" depart="2.2" from="404#1" to="514" />
    <trip id="45" depart="2.25" from="24#1" to="472#0" />
    <trip id="46" depart="2.3" from="64" to="357" />
    <trip id="47" depart="2.35" from="68#0" to="455#1" />
    <trip id="48" depart="2.4" from="526#6" to="659" />
    <trip id="49" depart="2.45" from="493" to="661#1" />
    <trip id="50" depart="2.5" from="76" to="458" />
    <trip id="51" depart="2.55" from="-12" to="8#2" />
    <trip id="52" depart="2.6" from="518" to="551#1" />
    <trip id="53" depart="2.65" from="526#1" to="606" />
    <trip id="54" depart="2.7" from="550#0" to="626" />
    <trip id="55" depart="2.75" from="449#0" to="520" />
    <trip id="56" depart="2.8" from="604" to="501" />
    <trip id="57" depart="2.85" from="451" to="449#0" />
    <trip id="58" depart="2.9" from="664#0" to="558#1" />
    <trip id="59" depart="2.95" from="406#1" to="30#2" />
    <trip id="60" depart="3.0" from="485#4" to="-511" />
    <trip id="61" depart="3.05" from="-87#1" to="649#1" />
    <trip id="62" depart="3.1" from="586#2" to="601" />
    <trip id="63" depart="3.15" from="620" to="-56#0" />
    <trip id="64" depart="3.2" from="403#0" to="543#0" />
    <trip id="65" depart="3.25" from="-511" to="490#0" />
    <trip id="66" depart="3.3" from="559" to="425#0" />
    <trip id="67" depart="3.35" from="649#3" to="408#0" />
    <trip id="68" depart="3.4" from="-65#0" to="439" />
    <trip id="69" depart="3.45" from="408#2" to="623#2" />
    <trip id="70" depart="3.5" from="433#1" to="658" />
    <trip id="71" depart="3.55" from="67#0" to="-490#0" />
    <trip id="72" depart="3.6" from="232" to="628#0" />
    <trip id="73" depart="3.65" from="397#4" to="389#0" />
    <trip id="74" depart="3.7" from="431#0" to="454" />
    <trip id="75" depart="3.75" from="613#0" to="413#1" />
    <trip id="76" depart="3.8" from="514" to="-332#0" />
    <trip id="77" depart="3.85" from="594#0" to="496#2" />
    <trip id="78" depart="3.9" from="543#4" to="433#0" />
    <trip id="79" depart="3.95" from="543#2" to="431#1" />
    <trip id="80" depart="4.0" from="87#1" to="525#0" />
    <trip id="81" depart="4.05" from="-550#0" to="664#0" />
    <trip id="82" depart="4.1" from="389#1" to="526#0" />
    <trip id="83" depart="4.15" from="478#1" to="538#0" />
    <trip id="84" depart="4.2" from="644" to="501" />
    <trip id="85" depart="4.25" from="605#0" to="498#1" />
    <trip id="86" depart="4.3" from="66" to="439" />
    <trip id="87" depart="4.35" from="487" to="543#1" />
    <trip id="88" depart="4.4" from="52" to="457#1" />
    <trip id="89" depart="4.45" from="437" to="397#5" />
    <trip id="90" depart="4.5" from="647" to="396" />
    <trip id="91" depart="4.55" from="654" to="382" />
    <trip id="92" depart="4.6" from="596#0" to="666#0" />
    <trip id="93" depart="4.65" from="321#0" to="388#2" />
    <trip id="94" depart="4.7" from="404#0" to="1#1" />
    <trip id="95" depart="4.75" from="506#2" to="650" />
    <trip id="96" depart="4.8" from="463#0" to="592" />
    <trip id="97" depart="4.85" from="398#1" to="670#3" />
    <trip id="98" depart="4.9" from="669#2" to="-551#1" />
    <trip id="99" depart="4.95" from="23#1" to="509" />
    <trip id="100" depart="5.0" from="308" to="626" />
    <trip id="101" depart="5.05" from="447#1" to="449#0" />
    <trip id="102" depart="5.1" from="452" to="508#0" />
    <trip id="103" depart="5.15" from="385#0" to="68#0" />
    <trip id="104" depart="5.2" from="508#1" to="593" />
    <trip id="105" depart="5.25" from="652" to="653" />
    <trip id="106" depart="5.3" from="521" to="488#3" />
    <trip id="107" depart="5.35" from="24#1" to="558#0" />
    <trip id="108" depart="5.4" from="70#0" to="-105#0" />
    <trip id="109" depart="5.45" from="57" to="-96" />
    <trip id="110" depart="5.5" from="600#1" to="-637#0" />
    <trip id="111" depart="5.55" from="662#0" to="596#0" />
    <trip id="112" depart="5.6" from="600#0" to="519" />
    <trip id="113" depart="5.65" from="554#2" to="-306" />
    <trip id="114" depart="5.7" from="530#0" to="39" />
    <trip id="115" depart="5.75" from="627" to="488#6" />
    <trip id="116" depart="5.8" from="73" to="105#1" />
    <trip id="117" depart="5.85" from="544#0" to="-551#0" />
    <trip id="118" depart="5.9" from="-106#1" to="443" />
    <trip id="119" depart="5.95" from="-87#0" to="431#1" />
    <trip id="120" depart="6.0" from="459#2" to="508#0" />
    <trip id="121" depart="6.05" from="591#1" to="470" />
    <trip id="122" depart="6.1" from="485#5" to="478#1" />
    <trip id="123" depart="6.15" from="77#0" to="463#2" />
    <trip id="124" depart="6.2" from="-388#1" to="536" />
    <trip id="125" depart="6.25" from="70#0" to="44" />
    <trip id="126" depart="6.3" from="46" to="649#0" />
    <trip id="127" depart="6.35" from="-332#0" to="-637#1" />
    <trip id="128" depart="6.4" from="533" to="-341" />
    <trip id="129" depart="6.45" from="-544#1" to="400" />
    <trip id="130" depart="6.5" from="571#2" to="613#1" />
    <trip id="131" depart="6.55" from="560" to="591#2" />
    <trip id="132" depart="6.6" from="468#1" to="594#0" />
    <trip id="133" depart="6.65" from="-65#0" to="527" />
    <trip id="134" depart="6.7" from="-34" to="482" />
    <trip id="135" depart="6.75" from="373" to="433#0" />
    <trip id="136" depart="6.8" from="544#1" to="634#1" />
    <trip id="137" depart="6.85" from="402" to="516#0" />
    <trip id="138" depart="6.9" from="559" to="76" />
    <trip id="139" depart="6.95" from="404#2" to="557#3" />
    <trip id="140" depart="7.0" from="488#6" to="513" />
    <trip id="141" depart="7.05" from="404#0" to="92" />
    <trip id="142" depart="7.1" from="533" to="232" />
    <trip id="143" depart="7.15" from="557#2" to="77#1" />
    <trip id="144" depart="7.2" from="526#0" to="479" />
    <trip id="145" depart="7.25" from="485#5" to="-544#2" />
    <trip id="146" depart="7.3" from="409#1" to="-378#0" />
    <trip id="147" depart="7.35" from="670#3" to="623#1" />
    <trip id="148" depart="7.4" from="467#1" to="-321#1" />
    <trip id="149" depart="7.45" from="1#0" to="444" />
    <trip id="150" depart="7.5" from="551#0" to="525#0" />
    <trip id="151" depart="7.55" from="70#0" to="504" />
    <trip id="152" depart="7.6" from="525#1" to="-8#0" />
    <trip id="153" depart="7.65" from="506#2" to="-65#1" />
    <trip id="154" depart="7.7" from="485#3" to="555#4" />
    <trip id="155" depart="7.75" from="591#0" to="77#1" />
    <trip id="156" depart="7.8" from="600#1" to="464" />
    <trip id="157" depart="7.85" from="-491" to="-87#1" />
    <trip id="158" depart="7.9" from="513" to="-9" />
    <trip id="159" depart="7.95" from="571#1" to="571#1" />
    <trip id="160" depart="8.0" from="405#2" to="438#0" />
    <trip id="161" depart="8.05" from="591#0" to="558#2" />
    <trip id="162" depart="8.1" from="384" to="-551#0" />
    <trip id="163" depart="8.15" from="547" to="356#1" />
    <trip id="164" depart="8.2" from="-388#1" to="438#1" />
    <trip id="165" depart="8.25" from="30#0" to="660" />
    <trip id="166" depart="8.3" from="488#1" to="1#0" />
    <trip id="167" depart="8.35" from="488#5" to="438#1" />
    <trip id="168" depart="8.4" from="-10" to="555#3" />
    <trip id="169" depart="8.45" from="425#1" to="657" />
    <trip id="170" depart="8.5" from="-544#1" to="570#1" />
    <trip id="171" depart="8.55" from="649#7" to="547" />
    <trip id="172" depart="8.6" from="616" to="488#1" />
    <trip id="173" depart="8.65" from="423" to="504" />
    <trip id="174" depart="8.7" from="2#0" to="463#1" />
    <trip id="175" depart="8.75" from="505#0" to="618" />
    <trip id="176" depart="8.8" from="551#3" to="528" />
    <trip id="177" depart="8.85" from="-10" to="551#1" />
    <trip id="178" depart="8.9" from="485#9" to="408#0" />
    <trip id="179" depart="8.95" from="605#2" to="-105#0" />
    <trip id="180" depart="9.0" from="594#0" to="563" />
    <trip id="181" depart="9.05" from="588" to="461" />
    <trip id="182" depart="9.1" from="488#4" to="553#0" />
    <trip id="183" depart="9.15" from="391" to="664#0" />
    <trip id="184" depart="9.2" from="522" to="348" />
    <trip id="185" depart="9.25" from="74" to="526#2" />
    <trip id="186" depart="9.3" from="410#1" to="455#1" />
    <trip id="187" depart="9.35" from="397#1" to="384" />
    <trip id="188" depart="9.4" from="469#2" to="23#1" />
    <trip id="189" depart="9.45" from="527" to="649#4" />
    <trip id="190" depart="9.5" from="433#0" to="590" />
    <trip id="191" depart="9.55" from="637#0" to="70#0" />
    <trip id="192" depart="9.6" from="397#0" to="360" />
    <trip id="193" depart="9.65" from="660" to="455#0" />
    <trip id="194" depart="9.7" from="418#0" to="469#1" />
    <trip id="195" depart="9.75" from="675" to="7" />
    <trip id="196" depart="9.8" from="510" to="385#1" />
    <trip id="197" depart="9.85" from="577" to="561" />
    <trip id="198" depart="9.9" from="-388#0" to="65#0" />
    <trip id="199" depart="9.95" from="15#0" to="506#0" />
    <trip id="200" depart="10.0" from="508#1" to="645" />
    <trip id="201" depart="10.05" from="429#1" to="571#0" />
    <trip id="202" depart="10.1" from="64" to="672" />
    <trip id="203" depart="10.15" from="428" to="609" />
    <trip id="204" depart="10.2" from="449#1" to="463#1" />
    <trip id="205" depart="10.25" from="398#2" to="628#0" />
    <trip id="206" depart="10.3" from="490#0" to="658" />
    <trip id="207" depart="10.35" from="675" to="7" />
    <trip id="208" depart="10.4" from="356#0" to="579" />
    <trip id="209" depart="10.45" from="23#0" to="537#0" />
    <trip id="210" depart="10.5" from="566#1" to="467#0" />
    <trip id="211" depart="10.55" from="24#0" to="542#0" />
    <trip id="212" depart="10.6" from="-549#0" to="444" />
    <trip id="213" depart="10.65" from="502#2" to="469#2" />
    <trip id="214" depart="10.7" from="437" to="23#0" />
    <trip id="215" depart="10.75" from="490#0" to="374" />
    <trip id="216" depart="10.8" from="597" to="-305" />
    <trip id="217" depart="10.85" from="537#0" to="3" />
    <trip id="218" depart="10.9" from="398#1" to="510" />
    <trip id="219" depart="10.95" from="466#0" to="299#1" />
    <trip id="220" depart="11.0" from="395" to="77#1" />
    <trip id="221" depart="11.05" from="429#0" to="405#1" />
    <trip id="222" depart="11.1" from="42" to="651" />
    <trip id="223" depart="11.15" from="407" to="-544#0" />
    <trip id="224" depart="11.2" from="436" to="383" />
    <trip id="225" depart="11.25" from="-321#1" to="526#7" />
    <trip id="226" depart="11.3" from="15#0" to="20" />
    <trip id="227" depart="11.35" from="405#1" to="-332#1" />
    <trip id="228" depart="11.4" from="605#1" to="566#1" />
    <trip id="229" depart="11.45" from="22#1" to="570#1" />
    <trip id="230" depart="11.5" from="389#1" to="299#1" />
    <trip id="231" depart="11.55" from="-87#1" to="365" />
    <trip id="232" depart="11.6" from="493" to="662#1" />
    <trip id="233" depart="11.65" from="388#1" to="446#0" />
    <trip id="234" depart="11.7" from="12" to="446#0" />
    <trip id="235" depart="11.75" from="425#1" to="-87#2" />
    <trip id="236" depart="11.8" from="631" to="357" />
    <trip id="237" depart="11.85" from="69#1" to="544#2" />
    <trip id="238" depart="11.9" from="40" to="665#0" />
    <trip id="239" depart="11.95" from="662#2" to="67#0" />
    <trip id="240" depart="12.0" from="-388#3" to="630" />
    <trip id="241" depart="12.05" from="387" to="332#1" />
    <trip id="242" depart="12.1" from="544#0" to="-106#1" />
    <trip id="243" depart="12.15" from="594#2" to="66" />
    <trip id="244" depart="12.2" from="-299#1" to="463#2" />
    <trip id="245" depart="12.25" from="8#1" to="624" />
    <trip id="246" depart="12.3" from="525#1" to="-8#2" />
    <trip id="247" depart="12.35" from="537#1" to="436" />
    <trip id="248" depart="12.4" from="-341" to="-22#1" />
    <trip id="249" depart="12.45" from="671" to="8#2" />
    <trip id="250" depart="12.5" from="488#1" to="432#0" />
    <trip id="251" depart="12.55" from="461" to="402" />
    <trip id="252" depart="12.6" from="617" to="-321#0" />
    <trip id="253" depart="12.65" from="594#1" to="478#2" />
    <trip id="254" depart="12.7" from="620" to="490#1" />
    <trip id="255" depart="12.75" from="649#2" to="68#1" />
    <trip id="256" depart="12.8" from="471#0" to="362" />
    <trip id="257" depart="12.85" from="-37" to="617" />
    <trip id="258" depart="12.9" from="530#1" to="-551#2" />
    <trip id="259" depart="12.95" from="628#0" to="457#0" />
    <trip id="260" depart="13.0" from="354#1" to="446#0" />
    <trip id="261" depart="13.05" from="471#2" to="350#3" />
    <trip id="262" depart="13.1" from="467#0" to="425#0" />
    <trip id="263" depart="13.15" from="581" to="-96" />
    <trip id="264" depart="13.2" from="605#1" to="409#1" />
    <trip id="265" depart="13.25" from="485#3" to="355#1" />
    <trip id="266" depart="13.3" from="592" to="526#6" />
    <trip id="267" depart="13.35" from="378#1" to="498#0" />
    <trip id="268" depart="13.4" from="435" to="525#0" />
    <trip id="269" depart="13.45" from="407" to="628#0" />
    <trip id="270" depart="13.5" from="522" to="544#0" />
    <trip id="271" depart="13.55" from="604" to="666#0" />
    <trip id="272" depart="13.6" from="542#2" to="518" />
    <trip id="273" depart="13.65" from="494#1" to="340" />
    <trip id="274" depart="13.7" from="502#1" to="532#0" />
    <trip id="275" depart="13.75" from="362" to="378#1" />
    <trip id="276" depart="13.8" from="586#2" to="554#1" />
    <trip id="277" depart="13.85" from="431#0" to="626" />
    <trip id="278" depart="13.9" from="651" to="426#1" />
    <trip id="279" depart="13.95" from="435" to="459#1" />
    <trip id="280" depart="14.0" from="466#1" to="297" />
    <trip id="281" depart="14.05" from="432#0" to="-96" />
    <trip id="282" depart="14.1" from="391" to="544#2" />
    <trip id="283" depart="14.15" from="570#0" to="488#0" />
    <trip id="284" depart="14.2" from="23#1" to="476" />
    <trip id="285" depart="14.25" from="51" to="349" />
    <trip id="286" depart="14.3" from="526#0" to="-544#1" />
    <trip id="287" depart="14.35" from="95" to="537#1" />
    <trip id="288" depart="14.4" from="525#0" to="15#1" />
    <trip id="289" depart="14.45" from="68#2" to="565" />
    <trip id="290" depart="14.5" from="562" to="348" />
    <trip id="291" depart="14.55" from="634#2" to="412" />
    <trip id="292" depart="14.6" from="552" to="586#0" />
    <trip id="293" depart="14.65" from="457#1" to="431#1" />
    <trip id="294" depart="14.7" from="397#5" to="502#2" />
    <trip id="295" depart="14.75" from="472#0" to="-388#1" />
    <trip id="296" depart="14.8" from="566#2" to="586#1" />
    <trip id="297" depart="14.85" from="600#0" to="590" />
    <trip id="298" depart="14.9" from="403#0" to="408#1" />
    <trip id="299" depart="14.95" from="67#0" to="56#1" />
    <trip id="300" depart="15.0" from="543#0" to="515" />
    <trip id="301" depart="15.05" from="516#1" to="553#1" />
    <trip id="302" depart="15.1" from="661#2" to="550#2" />
    <trip id="303" depart="15.15" from="549#1" to="517" />
    <trip id="304" depart="15.2" from="-87#0" to="431#1" />
    <trip id="305" depart="15.25" from="566#1" to="609" />
    <trip id="306" depart="15.3" from="-332#0" to="458" />
    <trip id="307" depart="15.35" from="521" to="648" />
    <trip id="308" depart="15.4" from="583" to="661#0" />
    <trip id="309" depart="15.45" from="537#2" to="567" />
    <trip id="310" depart="15.5" from="643" to="316#1" />
    <trip id="311" depart="15.55" from="586#1" to="397#5" />
    <trip id="312" depart="15.6" from="526#4" to="541" />
    <trip id="313" depart="15.65" from="66" to="501" />
    <trip id="314" depart="15.7" from="558#1" to="84" />
    <trip id="315" depart="15.75" from="526#8" to="471#0" />
    <trip id="316" depart="15.8" from="620" to="394" />
    <trip id="317" depart="15.85" from="459#1" to="617" />
    <trip id="318" depart="15.9" from="-56#1" to="581" />
    <trip id="319" depart="15.95" from="23#0" to="403#0" />
    <trip id="320" depart="16.0" from="-550#2" to="654" />
    <trip id="321" depart="16.05" from="361" to="461" />
    <trip id="322" depart="16.1" from="594#1" to="-378#1" />
    <trip id="323" depart="16.15" from="24#1" to="68#0" />
    <trip id="324" depart="16.2" from="383" to="486" />
    <trip id="325" depart="16.25" from="485#3" to="357" />
    <trip id="326" depart="16.3" from="466#1" to="23#1" />
    <trip id="327" depart="16.35" from="-550#2" to="550#0" />
    <trip id="328" depart="16.4" from="607" to="-549#1" />
    <trip id="329" depart="16.45" from="660" to="432#1" />
    <trip id="330" depart="16.5" from="24#0" to="532#1" />
    <trip id="331" depart="16.55" from="56#1" to="445" />
    <trip id="332" depart="16.6" from="586#0" to="551#0" />
    <trip id="333" depart="16.65" from="395" to="24#0" />
    <trip id="334" depart="16.7" from="442#0" to="446#1" />
    <trip id="335" depart="16.75" from="455#1" to="457#1" />
    <trip id="336" depart="16.8" from="423" to="-551#2" />
    <trip id="337" depart="16.85" from="553#1" to="661#2" />
    <trip id="338" depart="16.9" from="596#0" to="544#2" />
    <trip id="339" depart="16.95" from="370" to="-551#3" />
    <trip id="340" depart="17.0" from="517" to="418#1" />
    <trip id="341" depart="17.05" from="596#1" to="615" />
    <trip id="342" depart="17.1" from="646" to="549#1" />
    <trip id="343" depart="17.15" from="443" to="65#0" />
    <trip id="344" depart="17.2" from="373" to="534" />
    <trip id="345" depart="17.25" from="526#1" to="657" />
    <trip id="346" depart="17.3" from="421" to="457#1" />
    <trip id="347" depart="17.35" from="463#2" to="490#1" />
    <trip id="348" depart="17.4" from="661#2" to="10" />
    <trip id="349" depart="17.45" from="-544#0" to="526#2" />
    <trip id="350" depart="17.5" from="513" to="56#1" />
    <trip id="351" depart="17.55" from="232" to="517" />
    <trip id="352" depart="17.6" from="397#5" to="529" />
    <trip id="353" depart="17.65" from="25" to="551#0" />
    <trip id="354" depart="17.7" from="398#0" to="544#2" />
    <trip id="355" depart="17.75" from="661#1" to="23#0" />
    <trip id="356" depart="17.8" from="551#1" to="651" />
    <trip id="357" depart="17.85" from="649#3" to="432#0" />
    <trip id="358" depart="17.9" from="451" to="425#1" />
    <trip id="359" depart="17.95" from="-491" to="670#2" />
    <trip id="360" depart="18.0" from="391" to="40" />
    <trip id="361" depart="18.05" from="-490#1" to="670#2" />
    <trip id="362" depart="18.1" from="48" to="542#0" />
    <trip id="363" depart="18.15" from="386#1" to="473" />
    <trip id="364" depart="18.2" from="348" to="605#2" />
    <trip id="365" depart="18.25" from="667" to="9" />
    <trip id="366" depart="18.3" from="647" to="630" />
    <trip id="367" depart="18.35" from="462" to="385#0" />
    <trip id="368" depart="18.4" from="463#1" to="663" />
    <trip id="369" depart="18.45" from="557#2" to="1#0" />
    <trip id="370" depart="18.5" from="429#1" to="558#0" />
    <trip id="371" depart="18.55" from="620" to="-87#0" />
    <trip id="372" depart="18.6" from="649#3" to="551#2" />
    <trip id="373" depart="18.65" from="447#1" to="5" />
    <trip id="374" depart="18.7" from="403#0" to="378#0" />
    <trip id="375" depart="18.75" from="595" to="649#3" />
    <trip id="376" depart="18.8" from="366" to="596#1" />
    <trip id="377" depart="18.85" from="30#0" to="352" />
    <trip id="378" depart="18.9" from="380" to="566#1" />
    <trip id="379" depart="18.95" from="386#1" to="649#1" />
    <trip id="380" depart="19.0" from="595" to="301" />
    <trip id="381" depart="19.05" from="409#1" to="459#2" />
    <trip id="382" depart="19.1" from="425#0" to="649#7" />
    <trip id="383" depart="19.15" from="87#0" to="87#0" />
    <trip id="384" depart="19.2" from="389#1" to="13" />
    <trip id="385" depart="19.25" from="644" to="431#0" />
    <trip id="386" depart="19.3" from="575#0" to="649#7" />
    <trip id="387" depart="19.35" from="591#2" to="596#0" />
    <trip id="388" depart="19.4" from="508#1" to="87#0" />
    <trip id="389" depart="19.45" from="669#0" to="423" />
    <trip id="390" depart="19.5" from="393" to="555#3" />
    <trip id="391" depart="19.55" from="555#0" to="413#1" />
    <trip id="392" depart="19.6" from="443" to="350#0" />
    <trip id="393" depart="19.65" from="15#1" to="371" />
    <trip id="394" depart="19.7" from="519" to="668" />
    <trip id="395" depart="19.75" from="441#0" to="-550#0" />
    <trip id="396" depart="19.8" from="650" to="505#0" />
    <trip id="397" depart="19.85" from="590" to="487" />
    <trip id="398" depart="19.9" from="425#0" to="543#2" />
    <trip id="399" depart="19.95" from="494#0" to="543#0" />
    <trip id="400" depart="20.0" from="62" to="494#1" />
    <trip id="401" depart="20.05" from="348" to="84" />
    <trip id="402" depart="20.1" from="571#0" to="426#0" />
    <trip id="403" depart="20.15" from="64" to="-8#2" />
    <trip id="404" depart="20.2" from="-332#1" to="562" />
    <trip id="405" depart="20.25" from="-549#2" to="598" />
    <trip id="406" depart="20.3" from="68#2" to="363" />
    <trip id="407" depart="20.35" from="464" to="463#0" />
    <trip id="408" depart="20.4" from="1#0" to="643" />
    <trip id="409" depart="20.45" from="388#0" to="2#1" />
    <trip id="410" depart="20.5" from="437" to="-98" />
    <trip id="411" depart="20.55" from="-511" to="547" />
    <trip id="412" depart="20.6" from="-549#2" to="389#0" />
    <trip id="413" depart="20.65" from="459#1" to="565" />
    <trip id="414" depart="20.7" from="-637#0" to="22#1" />
    <trip id="415" depart="20.75" from="67#0" to="634#1" />
    <trip id="416" depart="20.8" from="576" to="520" />
    <trip id="417" depart="20.85" from="397#3" to="573" />
    <trip id="418" depart="20.9" from="471#0" to="526#7" />
    <trip id="419" depart="20.95" from="57" to="390" />
    <trip id="420" depart="21.0" from="526#3" to="499" />
    <trip id="421" depart="21.05" from="-388#3" to="502#2" />
    <trip id="422" depart="21.1" from="455#2" to="480" />
    <trip id="423" depart="21.15" from="637#1" to="457#0" />
    <trip id="424" depart="21.2" from="48" to="553#0" />
    <trip id="425" depart="21.25" from="374" to="537#2" />
    <trip id="426" depart="21.3" from="485#6" to="506#2" />
    <trip id="427" depart="21.35" from="523" to="558#2" />
    <trip id="428" depart="21.4" from="526#1" to="575#0" />
    <trip id="429" depart="21.45" from="410#1" to="532#0" />
    <trip id="430" depart="21.5" from="586#2" to="538#1" />
    <trip id="431" depart="21.55" from="87#0" to="68#0" />
    <trip id="432" depart="21.6" from="68#0" to="660" />
    <trip id="433" depart="21.65" from="669#0" to="516#1" />
    <trip id="434" depart="21.7" from="40" to="503" />
    <trip id="435" depart="21.75" from="594#0" to="98" />
    <trip id="436" depart="21.8" from="-87#1" to="576" />
    <trip id="437" depart="21.85" from="670#2" to="350#0" />
    <trip id="438" depart="21.9" from="348" to="377" />
    <trip id="439" depart="21.95" from="550#0" to="417" />
    <trip id="440" depart="22.0" from="637#1" to="388#2" />
    <trip id="441" depart="22.05" from="-490#1" to="551#1" />
    <trip id="442" depart="22.1" from="350#0" to="409#1" />
    <trip id="443" depart="22.15" from="634#1" to="664#1" />
    <trip id="444" depart="22.2" from="494#0" to="358#1" />
    <trip id="445" depart="22.25" from="585" to="388#2" />
    <trip id="446" depart="22.3" from="536" to="670#1" />
    <trip id="447" depart="22.35" from="351#0" to="392" />
    <trip id="448" depart="22.4" from="666#1" to="53" />
    <trip id="449" depart="22.45" from="408#1" to="553#1" />
    <trip id="450" depart="22.5" from="668" to="413#1" />
    <trip id="451" depart="22.55" from="76" to="446#1" />
    <trip id="452" depart="22.6" from="443" to="653" />
    <trip id="453" depart="22.65" from="586#1" to="610" />
    <trip id="454" depart="22.7" from="348" to="523" />
    <trip id="455" depart="22.75" from="455#1" to="-388#3" />
    <trip id="456" depart="22.8" from="-302" to="-490#0" />
    <trip id="457" depart="22.85" from="452" to="350#3" />
    <trip id="458" depart="22.9" from="388#2" to="321#1" />
    <trip id="459" depart="22.95" from="68#0" to="557#3" />
    <trip id="460" depart="23.0" from="105#0" to="86" />
    <trip id="461" depart="23.05" from="534" to="571#2" />
    <trip id="462" depart="23.1" from="655" to="415" />
    <trip id="463" depart="23.15" from="566#2" to="40" />
    <trip id="464" depart="23.2" from="-634#2" to="485#1" />
    <trip id="465" depart="23.25" from="485#9" to="-105#1" />
    <trip id="466" depart="23.3" from="477" to="559" />
    <trip id="467" depart="23.35" from="351#1" to="505#1" />
    <trip id="468" depart="23.4" from="628#0" to="675" />
    <trip id="469" depart="23.45" from="601" to="470" />
    <trip id="470" depart="23.5" from="550#0" to="65#0" />
    <trip id="471" depart="23.55" from="473" to="586#2" />
    <trip id="472" depart="23.6" from="543#1" to="371" />
    <trip id="473" depart="23.65" from="661#2" to="60" />
    <trip id="474" depart="23.7" from="-43" to="462" />
    <trip id="475" depart="23.75" from="-637#0" to="591#0" />
    <trip id="476" depart="23.8" from="641" to="360" />
    <trip id="477" depart="23.85" from="-37" to="532#1" />
    <trip id="478" depart="23.9" from="96" to="547" />
    <trip id="479" depart="23.95" from="549#0" to="68#2" />
    <trip id="480" depart="24.0" from="106#1" to="449#1" />
    <trip id="481" depart="24.05" from="666#0" to="433#1" />
    <trip id="482" depart="24.1" from="368" to="455#2" />
    <trip id="483" depart="24.15" from="605#1" to="610" />
    <trip id="484" depart="24.2" from="665#0" to="584" />
    <trip id="485" depart="24.25" from="466#1" to="40" />
    <trip id="486" depart="24.3" from="662#0" to="591#0" />
    <trip id="487" depart="24.35" from="498#0" to="467#0" />
    <trip id="488" depart="24.4" from="351#0" to="49" />
    <trip id="489" depart="24.45" from="651" to="555#2" />
    <trip id="490" depart="24.5" from="543#3" to="22#1" />
    <trip id="491" depart="24.55" from="485#9" to="665#0" />
    <trip id="492" depart="24.6" from="462" to="77#0" />
    <trip id="493" depart="24.65" from="505#1" to="577" />
    <trip id="494" depart="24.7" from="-511" to="526#6" />
    <trip id="495" depart="24.75" from="557#2" to="-551#3" />
    <trip id="496" depart="24.8" from="15#0" to="467#1" />
    <trip id="497" depart="24.85" from="586#2" to="410#0" />
    <trip id="498" depart="24.9" from="560" to="56#0" />
    <trip id="499" depart="24.95" from="380" to="-96" />
    <trip id="500" depart="25.0" from="449#0" to="536" />
    <trip id="501" depart="25.05" from="479" to="578" />
    <trip id="502" depart="25.1" from="370" to="350#1" />
    <trip id="503" depart="25.15" from="581" to="1#0" />
    <trip id="504" depart="25.2" from="315" to="637#0" />