<?xml version="1.0" encoding="UTF-8"?>

<!-- generated on 12/02/16 18:00:30 by SUMO netgenerate Version 0.24.0
<?xml version="1.0" encoding="UTF-8"?>

<configuration xmlns:xsi="http://www.w3.org/2001/XMLSchema-instance" xsi:noNamespaceSchemaLocation="http://sumo.dlr.de/xsd/netgenerateConfiguration.xsd">

    <grid_network>
        <grid value="true"/>
        <grid.x-number value="5"/>
        <grid.y-number value="5"/>
        <grid.x-length value="300"/>
        <grid.y-length value="300"/>
    </grid_network>

    <output>
        <output-file value="input_net.net.xml"/>
    </output>

    <building_defaults>
        <default.lanenumber value="4"/>
        <default.speed value="12"/>
    </building_defaults>

</configuration>
-->

<net version="0.13" xmlns:xsi="http://www.w3.org/2001/XMLSchema-instance" xsi:noNamespaceSchemaLocation="http://sumo.dlr.de/xsd/net_file.xsd">

    <location netOffset="0.00,0.00" convBoundary="0.00,0.00,1200.00,1200.00" origBoundary="0.00,0.00,1200.00,1200.00" projParameter="!"/>

    <edge id=":0/0_0" function="internal">
        <lane id=":0/0_0_0" index="0" speed="12.00" length="31.85" shape="-11.55,13.15 -10.01,2.34 -5.38,-5.38 2.34,-10.01 13.15,-11.55"/>
        <lane id=":0/0_0_1" index="1" speed="12.00" length="31.85" shape="-8.25,13.15 -6.91,3.79 -2.90,-2.90 3.79,-6.91 13.15,-8.25"/>
        <lane id=":0/0_0_2" index="2" speed="12.00" length="31.85" shape="-4.95,13.15 -3.82,5.23 -0.43,-0.42 5.23,-3.82 13.15,-4.95"/>
        <lane id=":0/0_0_3" index="3" speed="12.00" length="31.85" shape="-1.65,13.15 -0.73,6.68 2.05,2.05 6.67,-0.72 13.15,-1.65"/>
    </edge>
    <edge id=":0/0_4" function="internal">
        <lane id=":0/0_4_0" index="0" speed="12.00" length="2.69" shape="-1.65,13.15 -0.83,11.91 -0.00,11.50 0.25,11.63"/>
    </edge>
    <edge id=":0/0_10" function="internal">
        <lane id=":0/0_10_0" index="0" speed="12.00" length="2.13" shape="0.25,11.63 0.82,11.91 1.65,13.15"/>
    </edge>
    <edge id=":0/0_5" function="internal">
        <lane id=":0/0_5_0" index="0" speed="12.00" length="10.56" shape="13.15,11.55 12.45,11.65 11.95,11.95 11.65,12.45 11.55,13.15"/>
        <lane id=":0/0_5_1" index="1" speed="12.00" length="10.56" shape="13.15,8.25 11.01,8.56 9.47,9.47 8.56,11.01 8.25,13.15"/>
        <lane id=":0/0_5_2" index="2" speed="12.00" length="10.56" shape="13.15,4.95 9.56,5.46 7.00,7.00 5.46,9.56 4.95,13.15"/>
        <lane id=":0/0_5_3" index="3" speed="12.00" length="10.56" shape="13.15,1.65 8.12,2.37 4.52,4.53 2.37,8.12 1.65,13.15"/>
    </edge>
    <edge id=":0/0_9" function="internal">
        <lane id=":0/0_9_0" index="0" speed="12.00" length="2.20" shape="13.15,1.65 11.91,0.83 11.59,0.19"/>
    </edge>
    <edge id=":0/0_11" function="internal">
        <lane id=":0/0_11_0" index="0" speed="12.00" length="2.62" shape="11.59,0.19 11.50,0.00 11.91,-0.83 13.15,-1.65"/>
    </edge>
    <edge id=":0/1_0" function="internal">
        <lane id=":0/1_0_0" index="0" speed="12.00" length="29.30" shape="-11.55,314.65 -11.55,305.95 -11.55,300.00 -11.55,294.05 -11.55,285.35"/>
        <lane id=":0/1_0_1" index="1" speed="12.00" length="29.30" shape="-8.25,314.65 -8.25,305.95 -8.25,300.00 -8.25,294.05 -8.25,285.35"/>
        <lane id=":0/1_0_2" index="2" speed="12.00" length="29.30" shape="-4.95,314.65 -4.95,305.95 -4.95,300.00 -4.95,294.05 -4.95,285.35"/>
    </edge>
    <edge id=":0/1_3" function="internal">
        <lane id=":0/1_3_0" index="0" speed="12.00" length="9.34" shape="-1.65,314.65 -0.63,306.08 0.05,304.71"/>
        <lane id=":0/1_3_1" index="1" speed="12.00" length="9.34" shape="-1.65,314.65 -0.63,307.52 0.05,306.38"/>
    </edge>
    <edge id=":0/1_5" function="internal">
        <lane id=":0/1_5_0" index="0" speed="12.00" length="2.41" shape="-1.65,314.65 -0.83,313.41 -0.00,313.00"/>
    </edge>
    <edge id=":0/1_19" function="internal">
        <lane id=":0/1_19_0" index="0" speed="12.00" length="18.84" shape="0.05,304.71 2.43,299.95 7.52,296.28 14.65,295.05"/>
    </edge>
    <edge id=":0/1_20" function="internal">
        <lane id=":0/1_20_0" index="0" speed="12.00" length="17.76" shape="0.05,306.38 2.43,302.43 7.52,299.37 14.65,298.35"/>
    </edge>
    <edge id=":0/1_21" function="internal">
        <lane id=":0/1_21_0" index="0" speed="12.00" length="2.41" shape="-0.00,313.00 0.83,313.41 1.65,314.65"/>
    </edge>
    <edge id=":0/1_6" function="internal">
        <lane id=":0/1_6_0" index="0" speed="12.00" length="9.47" shape="14.65,311.55 13.29,311.74 12.33,312.33 11.74,313.29 11.55,314.65"/>
        <lane id=":0/1_6_1" index="1" speed="12.00" length="9.47" shape="14.65,308.25 11.85,308.65 9.85,309.85 8.65,311.85 8.25,314.65"/>
        <lane id=":0/1_6_2" index="2" speed="12.00" length="9.47" shape="14.65,308.25 10.41,308.65 7.38,309.85 5.56,311.85 4.95,314.65"/>
    </edge>
    <edge id=":0/1_9" function="internal">
        <lane id=":0/1_9_0" index="0" speed="12.00" length="28.95" shape="14.65,304.95 6.08,303.73 -0.05,300.05 -3.72,293.92 -4.95,285.35"/>
        <lane id=":0/1_9_1" index="1" speed="12.00" length="28.95" shape="14.65,301.65 7.52,300.63 2.42,297.57 -0.63,292.48 -1.65,285.35"/>
    </edge>
    <edge id=":0/1_11" function="internal">
        <lane id=":0/1_11_0" index="0" speed="12.00" length="4.82" shape="14.65,301.65 13.41,300.83 13.00,300.00 13.41,299.18 14.65,298.35"/>
    </edge>
    <edge id=":0/1_12" function="internal">
        <lane id=":0/1_12_0" index="0" speed="12.00" length="6.42" shape="11.55,285.35 11.74,286.71 12.33,287.68 13.29,288.26 14.65,288.45"/>
        <lane id=":0/1_12_1" index="1" speed="12.00" length="6.42" shape="11.55,285.35 11.74,288.15 12.33,290.15 13.29,291.35 14.65,291.75"/>
    </edge>
    <edge id=":0/1_14" function="internal">
        <lane id=":0/1_14_0" index="0" speed="12.00" length="29.30" shape="11.55,285.35 11.55,294.05 11.55,300.00 11.55,305.95 11.55,314.65"/>
        <lane id=":0/1_14_1" index="1" speed="12.00" length="29.30" shape="8.25,285.35 8.25,294.05 8.25,300.00 8.25,305.95 8.25,314.65"/>
        <lane id=":0/1_14_2" index="2" speed="12.00" length="29.30" shape="4.95,285.35 4.95,294.05 4.95,300.00 4.95,305.95 4.95,314.65"/>
        <lane id=":0/1_14_3" index="3" speed="12.00" length="29.30" shape="1.65,285.35 1.65,294.05 1.65,300.00 1.65,305.95 1.65,314.65"/>
    </edge>
    <edge id=":0/1_18" function="internal">
        <lane id=":0/1_18_0" index="0" speed="12.00" length="2.41" shape="1.65,285.35 0.83,286.59 0.00,287.00"/>
    </edge>
    <edge id=":0/1_22" function="internal">
        <lane id=":0/1_22_0" index="0" speed="12.00" length="2.41" shape="0.00,287.00 -0.83,286.59 -1.65,285.35"/>
    </edge>
    <edge id=":0/2_0" function="internal">
        <lane id=":0/2_0_0" index="0" speed="12.00" length="29.30" shape="-11.55,614.65 -11.55,605.95 -11.55,600.00 -11.55,594.05 -11.55,585.35"/>
        <lane id=":0/2_0_1" index="1" speed="12.00" length="29.30" shape="-8.25,614.65 -8.25,605.95 -8.25,600.00 -8.25,594.05 -8.25,585.35"/>
        <lane id=":0/2_0_2" index="2" speed="12.00" length="29.30" shape="-4.95,614.65 -4.95,605.95 -4.95,600.00 -4.95,594.05 -4.95,585.35"/>
    </edge>
    <edge id=":0/2_3" function="internal">
        <lane id=":0/2_3_0" index="0" speed="12.00" length="9.34" shape="-1.65,614.65 -0.63,606.07 0.05,604.71"/>
        <lane id=":0/2_3_1" index="1" speed="12.00" length="9.34" shape="-1.65,614.65 -0.63,607.52 0.05,606.38"/>
    </edge>
    <edge id=":0/2_5" function="internal">
        <lane id=":0/2_5_0" index="0" speed="12.00" length="2.41" shape="-1.65,614.65 -0.83,613.41 -0.00,613.00"/>
    </edge>
    <edge id=":0/2_19" function="internal">
        <lane id=":0/2_19_0" index="0" speed="12.00" length="18.84" shape="0.05,604.71 2.42,599.95 7.52,596.27 14.65,595.05"/>
    </edge>
    <edge id=":0/2_20" function="internal">
        <lane id=":0/2_20_0" index="0" speed="12.00" length="17.76" shape="0.05,606.38 2.43,602.42 7.52,599.37 14.65,598.35"/>
    </edge>
    <edge id=":0/2_21" function="internal">
        <lane id=":0/2_21_0" index="0" speed="12.00" length="2.41" shape="-0.00,613.00 0.83,613.41 1.65,614.65"/>
    </edge>
    <edge id=":0/2_6" function="internal">
        <lane id=":0/2_6_0" index="0" speed="12.00" length="9.47" shape="14.65,611.55 13.29,611.74 12.33,612.32 11.74,613.29 11.55,614.65"/>
        <lane id=":0/2_6_1" index="1" speed="12.00" length="9.47" shape="14.65,608.25 11.85,608.65 9.85,609.85 8.65,611.85 8.25,614.65"/>
        <lane id=":0/2_6_2" index="2" speed="12.00" length="9.47" shape="14.65,608.25 10.41,608.65 7.37,609.85 5.56,611.85 4.95,614.65"/>
    </edge>
    <edge id=":0/2_9" function="internal">
        <lane id=":0/2_9_0" index="0" speed="12.00" length="28.95" shape="14.65,604.95 6.08,603.73 -0.05,600.05 -3.72,593.93 -4.95,585.35"/>
        <lane id=":0/2_9_1" index="1" speed="12.00" length="28.95" shape="14.65,601.65 7.52,600.63 2.42,597.57 -0.63,592.48 -1.65,585.35"/>
    </edge>
    <edge id=":0/2_11" function="internal">
        <lane id=":0/2_11_0" index="0" speed="12.00" length="4.82" shape="14.65,601.65 13.41,600.82 13.00,600.00 13.41,599.17 14.65,598.35"/>
    </edge>
    <edge id=":0/2_12" function="internal">
        <lane id=":0/2_12_0" index="0" speed="12.00" length="6.42" shape="11.55,585.35 11.74,586.71 12.32,587.67 13.29,588.26 14.65,588.45"/>
        <lane id=":0/2_12_1" index="1" speed="12.00" length="6.42" shape="11.55,585.35 11.74,588.15 12.32,590.15 13.29,591.35 14.65,591.75"/>
    </edge>
    <edge id=":0/2_14" function="internal">
        <lane id=":0/2_14_0" index="0" speed="12.00" length="29.30" shape="11.55,585.35 11.55,594.05 11.55,600.00 11.55,605.95 11.55,614.65"/>
        <lane id=":0/2_14_1" index="1" speed="12.00" length="29.30" shape="8.25,585.35 8.25,594.05 8.25,600.00 8.25,605.95 8.25,614.65"/>
        <lane id=":0/2_14_2" index="2" speed="12.00" length="29.30" shape="4.95,585.35 4.95,594.05 4.95,600.00 4.95,605.95 4.95,614.65"/>
        <lane id=":0/2_14_3" index="3" speed="12.00" length="29.30" shape="1.65,585.35 1.65,594.05 1.65,600.00 1.65,605.95 1.65,614.65"/>
    </edge>
    <edge id=":0/2_18" function="internal">
        <lane id=":0/2_18_0" index="0" speed="12.00" length="2.41" shape="1.65,585.35 0.83,586.59 0.00,587.00"/>
    </edge>
    <edge id=":0/2_22" function="internal">
        <lane id=":0/2_22_0" index="0" speed="12.00" length="2.41" shape="0.00,587.00 -0.83,586.59 -1.65,585.35"/>
    </edge>
    <edge id=":0/3_0" function="internal">
        <lane id=":0/3_0_0" index="0" speed="12.00" length="29.30" shape="-11.55,914.65 -11.55,905.95 -11.55,900.00 -11.55,894.05 -11.55,885.35"/>
        <lane id=":0/3_0_1" index="1" speed="12.00" length="29.30" shape="-8.25,914.65 -8.25,905.95 -8.25,900.00 -8.25,894.05 -8.25,885.35"/>
        <lane id=":0/3_0_2" index="2" speed="12.00" length="29.30" shape="-4.95,914.65 -4.95,905.95 -4.95,900.00 -4.95,894.05 -4.95,885.35"/>
    </edge>
    <edge id=":0/3_3" function="internal">
        <lane id=":0/3_3_0" index="0" speed="12.00" length="9.34" shape="-1.65,914.65 -0.63,906.07 0.05,904.71"/>
        <lane id=":0/3_3_1" index="1" speed="12.00" length="9.34" shape="-1.65,914.65 -0.63,907.52 0.05,906.38"/>
    </edge>
    <edge id=":0/3_5" function="internal">
        <lane id=":0/3_5_0" index="0" speed="12.00" length="2.41" shape="-1.65,914.65 -0.83,913.41 -0.00,913.00"/>
    </edge>
    <edge id=":0/3_19" function="internal">
        <lane id=":0/3_19_0" index="0" speed="12.00" length="18.84" shape="0.05,904.71 2.42,899.95 7.52,896.27 14.65,895.05"/>
    </edge>
    <edge id=":0/3_20" function="internal">
        <lane id=":0/3_20_0" index="0" speed="12.00" length="17.76" shape="0.05,906.38 2.42,902.42 7.52,899.37 14.65,898.35"/>
    </edge>
    <edge id=":0/3_21" function="internal">
        <lane id=":0/3_21_0" index="0" speed="12.00" length="2.41" shape="-0.00,913.00 0.83,913.41 1.65,914.65"/>
    </edge>
    <edge id=":0/3_6" function="internal">
        <lane id=":0/3_6_0" index="0" speed="12.00" length="9.47" shape="14.65,911.55 13.29,911.74 12.33,912.32 11.74,913.29 11.55,914.65"/>
        <lane id=":0/3_6_1" index="1" speed="12.00" length="9.47" shape="14.65,908.25 11.85,908.65 9.85,909.85 8.65,911.85 8.25,914.65"/>
        <lane id=":0/3_6_2" index="2" speed="12.00" length="9.47" shape="14.65,908.25 10.41,908.65 7.37,909.85 5.56,911.85 4.95,914.65"/>
    </edge>
    <edge id=":0/3_9" function="internal">
        <lane id=":0/3_9_0" index="0" speed="12.00" length="28.95" shape="14.65,904.95 6.07,903.73 -0.05,900.05 -3.72,893.93 -4.95,885.35"/>
        <lane id=":0/3_9_1" index="1" speed="12.00" length="28.95" shape="14.65,901.65 7.52,900.63 2.43,897.57 -0.63,892.48 -1.65,885.35"/>
    </edge>
    <edge id=":0/3_11" function="internal">
        <lane id=":0/3_11_0" index="0" speed="12.00" length="4.82" shape="14.65,901.65 13.41,900.82 13.00,900.00 13.41,899.17 14.65,898.35"/>
    </edge>
    <edge id=":0/3_12" function="internal">
        <lane id=":0/3_12_0" index="0" speed="12.00" length="6.42" shape="11.55,885.35 11.74,886.71 12.32,887.67 13.29,888.26 14.65,888.45"/>
        <lane id=":0/3_12_1" index="1" speed="12.00" length="6.42" shape="11.55,885.35 11.74,888.15 12.32,890.15 13.29,891.35 14.65,891.75"/>
    </edge>
    <edge id=":0/3_14" function="internal">
        <lane id=":0/3_14_0" index="0" speed="12.00" length="29.30" shape="11.55,885.35 11.55,894.05 11.55,900.00 11.55,905.95 11.55,914.65"/>
        <lane id=":0/3_14_1" index="1" speed="12.00" length="29.30" shape="8.25,885.35 8.25,894.05 8.25,900.00 8.25,905.95 8.25,914.65"/>
        <lane id=":0/3_14_2" index="2" speed="12.00" length="29.30" shape="4.95,885.35 4.95,894.05 4.95,900.00 4.95,905.95 4.95,914.65"/>
        <lane id=":0/3_14_3" index="3" speed="12.00" length="29.30" shape="1.65,885.35 1.65,894.05 1.65,900.00 1.65,905.95 1.65,914.65"/>
    </edge>
    <edge id=":0/3_18" function="internal">
        <lane id=":0/3_18_0" index="0" speed="12.00" length="2.41" shape="1.65,885.35 0.83,886.59 0.00,887.00"/>
    </edge>
    <edge id=":0/3_22" function="internal">
        <lane id=":0/3_22_0" index="0" speed="12.00" length="2.41" shape="0.00,887.00 -0.83,886.59 -1.65,885.35"/>
    </edge>
    <edge id=":0/4_0" function="internal">
        <lane id=":0/4_0_0" index="0" speed="12.00" length="31.85" shape="13.15,1211.55 2.34,1210.01 -5.38,1205.38 -10.01,1197.66 -11.55,1186.85"/>
        <lane id=":0/4_0_1" index="1" speed="12.00" length="31.85" shape="13.15,1208.25 3.79,1206.91 -2.90,1202.90 -6.91,1196.21 -8.25,1186.85"/>
        <lane id=":0/4_0_2" index="2" speed="12.00" length="31.85" shape="13.15,1204.95 5.23,1203.82 -0.42,1200.43 -3.82,1194.77 -4.95,1186.85"/>
        <lane id=":0/4_0_3" index="3" speed="12.00" length="31.85" shape="13.15,1201.65 6.68,1200.72 2.05,1197.95 -0.72,1193.33 -1.65,1186.85"/>
    </edge>
    <edge id=":0/4_4" function="internal">
        <lane id=":0/4_4_0" index="0" speed="12.00" length="2.69" shape="13.15,1201.65 11.91,1200.82 11.50,1200.00 11.63,1199.75"/>
    </edge>
    <edge id=":0/4_10" function="internal">
        <lane id=":0/4_10_0" index="0" speed="12.00" length="2.13" shape="11.63,1199.75 11.91,1199.18 13.15,1198.35"/>
    </edge>
    <edge id=":0/4_5" function="internal">
        <lane id=":0/4_5_0" index="0" speed="12.00" length="10.56" shape="11.55,1186.85 11.65,1187.55 11.95,1188.05 12.45,1188.35 13.15,1188.45"/>
        <lane id=":0/4_5_1" index="1" speed="12.00" length="10.56" shape="8.25,1186.85 8.56,1188.99 9.47,1190.53 11.01,1191.44 13.15,1191.75"/>
        <lane id=":0/4_5_2" index="2" speed="12.00" length="10.56" shape="4.95,1186.85 5.46,1190.44 7.00,1193.00 9.56,1194.54 13.15,1195.05"/>
        <lane id=":0/4_5_3" index="3" speed="12.00" length="10.56" shape="1.65,1186.85 2.37,1191.88 4.53,1195.47 8.12,1197.63 13.15,1198.35"/>
    </edge>
    <edge id=":0/4_9" function="internal">
        <lane id=":0/4_9_0" index="0" speed="12.00" length="2.20" shape="1.65,1186.85 0.83,1188.09 0.19,1188.41"/>
    </edge>
    <edge id=":0/4_11" function="internal">
        <lane id=":0/4_11_0" index="0" speed="12.00" length="2.62" shape="0.19,1188.41 0.00,1188.50 -0.83,1188.09 -1.65,1186.85"/>
    </edge>
    <edge id=":1/0_0" function="internal">
        <lane id=":1/0_0_0" index="0" speed="12.00" length="9.47" shape="288.45,14.65 288.26,13.29 287.67,12.33 286.71,11.74 285.35,11.55"/>
        <lane id=":1/0_0_1" index="1" speed="12.00" length="9.47" shape="291.75,14.65 291.35,11.85 290.15,9.85 288.15,8.65 285.35,8.25"/>
        <lane id=":1/0_0_2" index="2" speed="12.00" length="9.47" shape="291.75,14.65 291.35,10.41 290.15,7.37 288.15,5.56 285.35,4.95"/>
    </edge>
    <edge id=":1/0_3" function="internal">
        <lane id=":1/0_3_0" index="0" speed="12.00" length="28.95" shape="295.05,14.65 296.27,6.08 299.95,-0.05 306.08,-3.72 314.65,-4.95"/>
        <lane id=":1/0_3_1" index="1" speed="12.00" length="28.95" shape="298.35,14.65 299.37,7.52 302.43,2.42 307.52,-0.63 314.65,-1.65"/>
    </edge>
    <edge id=":1/0_5" function="internal">
        <lane id=":1/0_5_0" index="0" speed="12.00" length="4.82" shape="298.35,14.65 299.17,13.41 300.00,13.00 300.82,13.41 301.65,14.65"/>
    </edge>
    <edge id=":1/0_6" function="internal">
        <lane id=":1/0_6_0" index="0" speed="12.00" length="6.42" shape="314.65,11.55 313.29,11.74 312.32,12.32 311.74,13.29 311.55,14.65"/>
        <lane id=":1/0_6_1" index="1" speed="12.00" length="6.42" shape="314.65,11.55 311.85,11.74 309.85,12.32 308.65,13.29 308.25,14.65"/>
    </edge>
    <edge id=":1/0_8" function="internal">
        <lane id=":1/0_8_0" index="0" speed="12.00" length="29.30" shape="314.65,11.55 305.95,11.55 300.00,11.55 294.05,11.55 285.35,11.55"/>
        <lane id=":1/0_8_1" index="1" speed="12.00" length="29.30" shape="314.65,8.25 305.95,8.25 300.00,8.25 294.05,8.25 285.35,8.25"/>
        <lane id=":1/0_8_2" index="2" speed="12.00" length="29.30" shape="314.65,4.95 305.95,4.95 300.00,4.95 294.05,4.95 285.35,4.95"/>
        <lane id=":1/0_8_3" index="3" speed="12.00" length="29.30" shape="314.65,1.65 305.95,1.65 300.00,1.65 294.05,1.65 285.35,1.65"/>
    </edge>
    <edge id=":1/0_12" function="internal">
        <lane id=":1/0_12_0" index="0" speed="12.00" length="2.41" shape="314.65,1.65 313.41,0.83 313.00,0.00"/>
    </edge>
    <edge id=":1/0_19" function="internal">
        <lane id=":1/0_19_0" index="0" speed="12.00" length="2.41" shape="313.00,0.00 313.41,-0.83 314.65,-1.65"/>
    </edge>
    <edge id=":1/0_13" function="internal">
        <lane id=":1/0_13_0" index="0" speed="12.00" length="29.30" shape="285.35,-11.55 294.05,-11.55 300.00,-11.55 305.95,-11.55 314.65,-11.55"/>
        <lane id=":1/0_13_1" index="1" speed="12.00" length="29.30" shape="285.35,-8.25 294.05,-8.25 300.00,-8.25 305.95,-8.25 314.65,-8.25"/>
        <lane id=":1/0_13_2" index="2" speed="12.00" length="29.30" shape="285.35,-4.95 294.05,-4.95 300.00,-4.95 305.95,-4.95 314.65,-4.95"/>
    </edge>
    <edge id=":1/0_16" function="internal">
        <lane id=":1/0_16_0" index="0" speed="12.00" length="9.34" shape="285.35,-1.65 293.92,-0.63 295.29,0.05"/>
        <lane id=":1/0_16_1" index="1" speed="12.00" length="9.34" shape="285.35,-1.65 292.48,-0.63 293.62,0.05"/>
    </edge>
    <edge id=":1/0_18" function="internal">
        <lane id=":1/0_18_0" index="0" speed="12.00" length="2.41" shape="285.35,-1.65 286.59,-0.83 287.00,-0.00"/>
    </edge>
    <edge id=":1/0_20" function="internal">
        <lane id=":1/0_20_0" index="0" speed="12.00" length="18.84" shape="295.29,0.05 300.05,2.43 303.72,7.52 304.95,14.65"/>
    </edge>
    <edge id=":1/0_21" function="internal">
        <lane id=":1/0_21_0" index="0" speed="12.00" length="17.76" shape="293.62,0.05 297.57,2.43 300.63,7.52 301.65,14.65"/>
    </edge>
    <edge id=":1/0_22" function="internal">
        <lane id=":1/0_22_0" index="0" speed="12.00" length="2.41" shape="287.00,-0.00 286.59,0.83 285.35,1.65"/>
    </edge>
    <edge id=":1/1_0" function="internal">
        <lane id=":1/1_0_0" index="0" speed="12.00" length="5.00" shape="288.45,314.65 288.26,313.29 287.67,312.32 286.71,311.74 285.35,311.55"/>
    </edge>
    <edge id=":1/1_1" function="internal">
        <lane id=":1/1_1_0" index="0" speed="12.00" length="29.30" shape="288.45,314.65 288.45,305.95 288.45,300.00 288.45,294.05 288.45,285.35"/>
        <lane id=":1/1_1_1" index="1" speed="12.00" length="29.30" shape="291.75,314.65 291.75,305.95 291.75,300.00 291.75,294.05 291.75,285.35"/>
        <lane id=":1/1_1_2" index="2" speed="12.00" length="29.30" shape="295.05,314.65 295.05,305.95 295.05,300.00 295.05,294.05 295.05,285.35"/>
        <lane id=":1/1_1_3" index="3" speed="12.00" length="29.30" shape="298.35,314.65 298.35,305.95 298.35,300.00 298.35,294.05 298.35,285.35"/>
    </edge>
    <edge id=":1/1_5" function="internal">
        <lane id=":1/1_5_0" index="0" speed="12.00" length="8.53" shape="298.35,314.65 299.37,307.52 300.05,306.38"/>
    </edge>
    <edge id=":1/1_6" function="internal">
        <lane id=":1/1_6_0" index="0" speed="12.00" length="2.41" shape="298.35,314.65 299.17,313.41 300.00,313.00"/>
    </edge>
    <edge id=":1/1_28" function="internal">
        <lane id=":1/1_28_0" index="0" speed="12.00" length="17.76" shape="300.05,306.38 302.43,302.43 307.52,299.37 314.65,298.35"/>
    </edge>
    <edge id=":1/1_29" function="internal">
        <lane id=":1/1_29_0" index="0" speed="12.00" length="2.41" shape="300.00,313.00 300.82,313.41 301.65,314.65"/>
    </edge>
    <edge id=":1/1_7" function="internal">
        <lane id=":1/1_7_0" index="0" speed="12.00" length="7.66" shape="314.65,311.55 313.29,311.74 312.32,312.33 311.74,313.29 311.55,314.65"/>
        <lane id=":1/1_7_1" index="1" speed="12.00" length="7.66" shape="314.65,308.25 311.85,308.65 309.85,309.85 308.65,311.85 308.25,314.65"/>
    </edge>
    <edge id=":1/1_9" function="internal">
        <lane id=":1/1_9_0" index="0" speed="12.00" length="29.42" shape="314.65,304.95 305.93,305.47 300.00,306.60 294.07,307.73 285.35,308.25"/>
        <lane id=":1/1_9_1" index="1" speed="12.00" length="29.42" shape="314.65,304.95 305.95,304.95 300.00,304.95 294.05,304.95 285.35,304.95"/>
    </edge>
    <edge id=":1/1_11" function="internal">
        <lane id=":1/1_11_0" index="0" speed="12.00" length="28.95" shape="314.65,304.95 306.08,303.73 299.95,300.05 296.28,293.92 295.05,285.35"/>
        <lane id=":1/1_11_1" index="1" speed="12.00" length="28.95" shape="314.65,301.65 307.52,300.63 302.43,297.57 299.37,292.48 298.35,285.35"/>
    </edge>
    <edge id=":1/1_13" function="internal">
        <lane id=":1/1_13_0" index="0" speed="12.00" length="4.82" shape="314.65,301.65 313.41,300.83 313.00,300.00 313.41,299.18 314.65,298.35"/>
    </edge>
    <edge id=":1/1_14" function="internal">
        <lane id=":1/1_14_0" index="0" speed="12.00" length="5.00" shape="311.55,285.35 311.74,286.71 312.33,287.68 313.29,288.26 314.65,288.45"/>
    </edge>
    <edge id=":1/1_15" function="internal">
        <lane id=":1/1_15_0" index="0" speed="12.00" length="29.30" shape="311.55,285.35 311.55,294.05 311.55,300.00 311.55,305.95 311.55,314.65"/>
        <lane id=":1/1_15_1" index="1" speed="12.00" length="29.30" shape="308.25,285.35 308.25,294.05 308.25,300.00 308.25,305.95 308.25,314.65"/>
        <lane id=":1/1_15_2" index="2" speed="12.00" length="29.30" shape="304.95,285.35 304.95,294.05 304.95,300.00 304.95,305.95 304.95,314.65"/>
        <lane id=":1/1_15_3" index="3" speed="12.00" length="29.30" shape="301.65,285.35 301.65,294.05 301.65,300.00 301.65,305.95 301.65,314.65"/>
    </edge>
    <edge id=":1/1_19" function="internal">
        <lane id=":1/1_19_0" index="0" speed="12.00" length="8.53" shape="301.65,285.35 300.63,292.48 299.95,293.62"/>
    </edge>
    <edge id=":1/1_20" function="internal">
        <lane id=":1/1_20_0" index="0" speed="12.00" length="2.41" shape="301.65,285.35 300.83,286.59 300.00,287.00"/>
    </edge>
    <edge id=":1/1_30" function="internal">
        <lane id=":1/1_30_0" index="0" speed="12.00" length="17.76" shape="299.95,293.62 297.57,297.57 292.48,300.63 285.35,301.65"/>
    </edge>
    <edge id=":1/1_31" function="internal">
        <lane id=":1/1_31_0" index="0" speed="12.00" length="2.41" shape="300.00,287.00 299.18,286.59 298.35,285.35"/>
    </edge>
    <edge id=":1/1_21" function="internal">
        <lane id=":1/1_21_0" index="0" speed="12.00" length="7.66" shape="285.35,288.45 286.71,288.26 287.67,287.67 288.26,286.71 288.45,285.35"/>
        <lane id=":1/1_21_1" index="1" speed="12.00" length="7.66" shape="285.35,291.75 288.15,291.35 290.15,290.15 291.35,288.15 291.75,285.35"/>
    </edge>
    <edge id=":1/1_23" function="internal">
        <lane id=":1/1_23_0" index="0" speed="12.00" length="29.42" shape="285.35,295.05 294.07,294.53 300.00,293.40 305.93,292.27 314.65,291.75"/>
        <lane id=":1/1_23_1" index="1" speed="12.00" length="29.42" shape="285.35,295.05 294.05,295.05 300.00,295.05 305.95,295.05 314.65,295.05"/>
    </edge>
    <edge id=":1/1_25" function="internal">
        <lane id=":1/1_25_0" index="0" speed="12.00" length="28.95" shape="285.35,295.05 293.92,296.27 300.05,299.95 303.72,306.08 304.95,314.65"/>
        <lane id=":1/1_25_1" index="1" speed="12.00" length="28.95" shape="285.35,298.35 292.48,299.37 297.58,302.43 300.63,307.52 301.65,314.65"/>
    </edge>
    <edge id=":1/1_27" function="internal">
        <lane id=":1/1_27_0" index="0" speed="12.00" length="4.82" shape="285.35,298.35 286.59,299.17 287.00,300.00 286.59,300.82 285.35,301.65"/>
    </edge>
    <edge id=":1/2_0" function="internal">
        <lane id=":1/2_0_0" index="0" speed="12.00" length="5.00" shape="288.45,614.65 288.26,613.29 287.67,612.33 286.71,611.74 285.35,611.55"/>
    </edge>
    <edge id=":1/2_1" function="internal">
        <lane id=":1/2_1_0" index="0" speed="12.00" length="29.30" shape="288.45,614.65 288.45,605.95 288.45,600.00 288.45,594.05 288.45,585.35"/>
        <lane id=":1/2_1_1" index="1" speed="12.00" length="29.30" shape="291.75,614.65 291.75,605.95 291.75,600.00 291.75,594.05 291.75,585.35"/>
        <lane id=":1/2_1_2" index="2" speed="12.00" length="29.30" shape="295.05,614.65 295.05,605.95 295.05,600.00 295.05,594.05 295.05,585.35"/>
        <lane id=":1/2_1_3" index="3" speed="12.00" length="29.30" shape="298.35,614.65 298.35,605.95 298.35,600.00 298.35,594.05 298.35,585.35"/>
    </edge>
    <edge id=":1/2_5" function="internal">
        <lane id=":1/2_5_0" index="0" speed="12.00" length="8.53" shape="298.35,614.65 299.37,607.52 300.05,606.38"/>
    </edge>
    <edge id=":1/2_6" function="internal">
        <lane id=":1/2_6_0" index="0" speed="12.00" length="2.41" shape="298.35,614.65 299.17,613.41 300.00,613.00"/>
    </edge>
    <edge id=":1/2_28" function="internal">
        <lane id=":1/2_28_0" index="0" speed="12.00" length="17.76" shape="300.05,606.38 302.43,602.43 307.52,599.37 314.65,598.35"/>
    </edge>
    <edge id=":1/2_29" function="internal">
        <lane id=":1/2_29_0" index="0" speed="12.00" length="2.41" shape="300.00,613.00 300.82,613.41 301.65,614.65"/>
    </edge>
    <edge id=":1/2_7" function="internal">
        <lane id=":1/2_7_0" index="0" speed="12.00" length="7.66" shape="314.65,611.55 313.29,611.74 312.33,612.32 311.74,613.29 311.55,614.65"/>
        <lane id=":1/2_7_1" index="1" speed="12.00" length="7.66" shape="314.65,608.25 311.85,608.65 309.85,609.85 308.65,611.85 308.25,614.65"/>
    </edge>
    <edge id=":1/2_9" function="internal">
        <lane id=":1/2_9_0" index="0" speed="12.00" length="29.42" shape="314.65,604.95 305.93,605.47 300.00,606.60 294.07,607.73 285.35,608.25"/>
        <lane id=":1/2_9_1" index="1" speed="12.00" length="29.42" shape="314.65,604.95 305.95,604.95 300.00,604.95 294.05,604.95 285.35,604.95"/>
    </edge>
    <edge id=":1/2_11" function="internal">
        <lane id=":1/2_11_0" index="0" speed="12.00" length="28.95" shape="314.65,604.95 306.08,603.73 299.95,600.05 296.28,593.93 295.05,585.35"/>
        <lane id=":1/2_11_1" index="1" speed="12.00" length="28.95" shape="314.65,601.65 307.52,600.63 302.43,597.57 299.37,592.48 298.35,585.35"/>
    </edge>
    <edge id=":1/2_13" function="internal">
        <lane id=":1/2_13_0" index="0" speed="12.00" length="4.82" shape="314.65,601.65 313.41,600.82 313.00,600.00 313.41,599.17 314.65,598.35"/>
    </edge>
    <edge id=":1/2_14" function="internal">
        <lane id=":1/2_14_0" index="0" speed="12.00" length="5.00" shape="311.55,585.35 311.74,586.71 312.33,587.67 313.29,588.26 314.65,588.45"/>
    </edge>
    <edge id=":1/2_15" function="internal">
        <lane id=":1/2_15_0" index="0" speed="12.00" length="29.30" shape="311.55,585.35 311.55,594.05 311.55,600.00 311.55,605.95 311.55,614.65"/>
        <lane id=":1/2_15_1" index="1" speed="12.00" length="29.30" shape="308.25,585.35 308.25,594.05 308.25,600.00 308.25,605.95 308.25,614.65"/>
        <lane id=":1/2_15_2" index="2" speed="12.00" length="29.30" shape="304.95,585.35 304.95,594.05 304.95,600.00 304.95,605.95 304.95,614.65"/>
        <lane id=":1/2_15_3" index="3" speed="12.00" length="29.30" shape="301.65,585.35 301.65,594.05 301.65,600.00 301.65,605.95 301.65,614.65"/>
    </edge>
    <edge id=":1/2_19" function="internal">
        <lane id=":1/2_19_0" index="0" speed="12.00" length="8.53" shape="301.65,585.35 300.63,592.48 299.95,593.62"/>
    </edge>
    <edge id=":1/2_20" function="internal">
        <lane id=":1/2_20_0" index="0" speed="12.00" length="2.41" shape="301.65,585.35 300.83,586.59 300.00,587.00"/>