<?xml version="1.0" encoding="UTF-8"?>

<!-- generated on 12/02/16 19:41:05 by SUMO netgenerate Version 0.24.0
<?xml version="1.0" encoding="UTF-8"?>

<configuration xmlns:xsi="http://www.w3.org/2001/XMLSchema-instance" xsi:noNamespaceSchemaLocation="http://sumo.dlr.de/xsd/netgenerateConfiguration.xsd">

    <grid_network>
        <grid value="true"/>
        <grid.x-number value="4"/>
        <grid.y-number value="4"/>
        <grid.x-length value="1000"/>
        <grid.y-length value="1000"/>
    </grid_network>

    <output>
        <output-file value="input_net.net.xml"/>
    </output>

    <building_defaults>
        <default.lanenumber value="4"/>
        <default.speed value="12"/>
    </building_defaults>

</configuration>
-->

<net version="0.13" xmlns:xsi="http://www.w3.org/2001/XMLSchema-instance" xsi:noNamespaceSchemaLocation="http://sumo.dlr.de/xsd/net_file.xsd">

    <location netOffset="0.00,0.00" convBoundary="0.00,0.00,3000.00,3000.00" origBoundary="0.00,0.00,3000.00,3000.00" projParameter="!"/>

    <edge id=":0/0_0" function="internal">
        <lane id=":0/0_0_0" index="0" speed="12.00" length="31.85" shape="-11.55,13.15 -10.01,2.34 -5.38,-5.37 2.34,-10.01 13.15,-11.55"/>
        <lane id=":0/0_0_1" index="1" speed="12.00" length="31.85" shape="-8.25,13.15 -6.91,3.79 -2.90,-2.90 3.79,-6.91 13.15,-8.25"/>
        <lane id=":0/0_0_2" index="2" speed="12.00" length="31.85" shape="-4.95,13.15 -3.82,5.23 -0.42,-0.43 5.23,-3.82 13.15,-4.95"/>
        <lane id=":0/0_0_3" index="3" speed="12.00" length="31.85" shape="-1.65,13.15 -0.73,6.68 2.05,2.05 6.68,-0.72 13.15,-1.65"/>
    </edge>
    <edge id=":0/0_4" function="internal">
        <lane id=":0/0_4_0" index="0" speed="12.00" length="2.69" shape="-1.65,13.15 -0.83,11.91 -0.00,11.50 0.25,11.63"/>
    </edge>
    <edge id=":0/0_10" function="internal">
        <lane id=":0/0_10_0" index="0" speed="12.00" length="2.13" shape="0.25,11.63 0.83,11.91 1.65,13.15"/>
    </edge>
    <edge id=":0/0_5" function="internal">
        <lane id=":0/0_5_0" index="0" speed="12.00" length="10.56" shape="13.15,11.55 12.45,11.65 11.95,11.95 11.65,12.45 11.55,13.15"/>
        <lane id=":0/0_5_1" index="1" speed="12.00" length="10.56" shape="13.15,8.25 11.01,8.56 9.47,9.48 8.56,11.01 8.25,13.15"/>
        <lane id=":0/0_5_2" index="2" speed="12.00" length="10.56" shape="13.15,4.95 9.56,5.46 7.00,7.00 5.46,9.56 4.95,13.15"/>
        <lane id=":0/0_5_3" index="3" speed="12.00" length="10.56" shape="13.15,1.65 8.12,2.37 4.52,4.53 2.37,8.12 1.65,13.15"/>
    </edge>
    <edge id=":0/0_9" function="internal">
        <lane id=":0/0_9_0" index="0" speed="12.00" length="2.20" shape="13.15,1.65 11.91,0.82 11.59,0.19"/>
    </edge>
    <edge id=":0/0_11" function="internal">
        <lane id=":0/0_11_0" index="0" speed="12.00" length="2.62" shape="11.59,0.19 11.50,-0.00 11.91,-0.83 13.15,-1.65"/>
    </edge>
    <edge id=":0/1_0" function="internal">
        <lane id=":0/1_0_0" index="0" speed="12.00" length="29.30" shape="-11.55,1014.65 -11.55,1005.95 -11.55,1000.00 -11.55,994.05 -11.55,985.35"/>
        <lane id=":0/1_0_1" index="1" speed="12.00" length="29.30" shape="-8.25,1014.65 -8.25,1005.95 -8.25,1000.00 -8.25,994.05 -8.25,985.35"/>
        <lane id=":0/1_0_2" index="2" speed="12.00" length="29.30" shape="-4.95,1014.65 -4.95,1005.95 -4.95,1000.00 -4.95,994.05 -4.95,985.35"/>
    </edge>
    <edge id=":0/1_3" function="internal">
        <lane id=":0/1_3_0" index="0" speed="12.00" length="9.34" shape="-1.65,1014.65 -0.63,1006.08 0.05,1004.71"/>
        <lane id=":0/1_3_1" index="1" speed="12.00" length="9.34" shape="-1.65,1014.65 -0.63,1007.52 0.05,1006.38"/>
    </edge>
    <edge id=":0/1_5" function="internal">
        <lane id=":0/1_5_0" index="0" speed="12.00" length="2.41" shape="-1.65,1014.65 -0.83,1013.41 -0.00,1013.00"/>
    </edge>
    <edge id=":0/1_19" function="internal">
        <lane id=":0/1_19_0" index="0" speed="12.00" length="18.84" shape="0.05,1004.71 2.43,999.95 7.52,996.27 14.65,995.05"/>
    </edge>
    <edge id=":0/1_20" function="internal">
        <lane id=":0/1_20_0" index="0" speed="12.00" length="17.76" shape="0.05,1006.38 2.43,1002.43 7.52,999.37 14.65,998.35"/>
    </edge>
    <edge id=":0/1_21" function="internal">
        <lane id=":0/1_21_0" index="0" speed="12.00" length="2.41" shape="-0.00,1013.00 0.83,1013.41 1.65,1014.65"/>
    </edge>
    <edge id=":0/1_6" function="internal">
        <lane id=":0/1_6_0" index="0" speed="12.00" length="9.47" shape="14.65,1011.55 13.29,1011.74 12.33,1012.32 11.74,1013.29 11.55,1014.65"/>
        <lane id=":0/1_6_1" index="1" speed="12.00" length="9.47" shape="14.65,1008.25 11.85,1008.65 9.85,1009.85 8.65,1011.85 8.25,1014.65"/>
        <lane id=":0/1_6_2" index="2" speed="12.00" length="9.47" shape="14.65,1008.25 10.41,1008.65 7.38,1009.85 5.56,1011.85 4.95,1014.65"/>
    </edge>
    <edge id=":0/1_9" function="internal">
        <lane id=":0/1_9_0" index="0" speed="12.00" length="28.95" shape="14.65,1004.95 6.07,1003.73 -0.05,1000.05 -3.73,993.92 -4.95,985.35"/>
        <lane id=":0/1_9_1" index="1" speed="12.00" length="28.95" shape="14.65,1001.65 7.52,1000.63 2.42,997.57 -0.63,992.48 -1.65,985.35"/>
    </edge>
    <edge id=":0/1_11" function="internal">
        <lane id=":0/1_11_0" index="0" speed="12.00" length="4.82" shape="14.65,1001.65 13.41,1000.83 13.00,1000.00 13.41,999.17 14.65,998.35"/>
    </edge>
    <edge id=":0/1_12" function="internal">
        <lane id=":0/1_12_0" index="0" speed="12.00" length="6.42" shape="11.55,985.35 11.74,986.71 12.33,987.67 13.29,988.26 14.65,988.45"/>
        <lane id=":0/1_12_1" index="1" speed="12.00" length="6.42" shape="11.55,985.35 11.74,988.15 12.33,990.15 13.29,991.35 14.65,991.75"/>
    </edge>
    <edge id=":0/1_14" function="internal">
        <lane id=":0/1_14_0" index="0" speed="12.00" length="29.30" shape="11.55,985.35 11.55,994.05 11.55,1000.00 11.55,1005.95 11.55,1014.65"/>
        <lane id=":0/1_14_1" index="1" speed="12.00" length="29.30" shape="8.25,985.35 8.25,994.05 8.25,1000.00 8.25,1005.95 8.25,1014.65"/>
        <lane id=":0/1_14_2" index="2" speed="12.00" length="29.30" shape="4.95,985.35 4.95,994.05 4.95,1000.00 4.95,1005.95 4.95,1014.65"/>
        <lane id=":0/1_14_3" index="3" speed="12.00" length="29.30" shape="1.65,985.35 1.65,994.05 1.65,1000.00 1.65,1005.95 1.65,1014.65"/>
    </edge>
    <edge id=":0/1_18" function="internal">
        <lane id=":0/1_18_0" index="0" speed="12.00" length="2.41" shape="1.65,985.35 0.83,986.59 0.00,987.00"/>
    </edge>
    <edge id=":0/1_22" function="internal">
        <lane id=":0/1_22_0" index="0" speed="12.00" length="2.41" shape="0.00,987.00 -0.83,986.59 -1.65,985.35"/>
    </edge>
    <edge id=":0/2_0" function="internal">
        <lane id=":0/2_0_0" index="0" speed="12.00" length="29.30" shape="-11.55,2014.65 -11.55,2005.95 -11.55,2000.00 -11.55,1994.05 -11.55,1985.35"/>
        <lane id=":0/2_0_1" index="1" speed="12.00" length="29.30" shape="-8.25,2014.65 -8.25,2005.95 -8.25,2000.00 -8.25,1994.05 -8.25,1985.35"/>
        <lane id=":0/2_0_2" index="2" speed="12.00" length="29.30" shape="-4.95,2014.65 -4.95,2005.95 -4.95,2000.00 -4.95,1994.05 -4.95,1985.35"/>
    </edge>
    <edge id=":0/2_3" function="internal">
        <lane id=":0/2_3_0" index="0" speed="12.00" length="9.34" shape="-1.65,2014.65 -0.63,2006.07 0.05,2004.71"/>
        <lane id=":0/2_3_1" index="1" speed="12.00" length="9.34" shape="-1.65,2014.65 -0.63,2007.52 0.05,2006.38"/>
    </edge>
    <edge id=":0/2_5" function="internal">
        <lane id=":0/2_5_0" index="0" speed="12.00" length="2.41" shape="-1.65,2014.65 -0.83,2013.41 -0.00,2013.00"/>
    </edge>
    <edge id=":0/2_19" function="internal">
        <lane id=":0/2_19_0" index="0" speed="12.00" length="18.84" shape="0.05,2004.71 2.43,1999.95 7.52,1996.28 14.65,1995.05"/>
    </edge>
    <edge id=":0/2_20" function="internal">
        <lane id=":0/2_20_0" index="0" speed="12.00" length="17.76" shape="0.05,2006.38 2.43,2002.42 7.52,1999.37 14.65,1998.35"/>
    </edge>
    <edge id=":0/2_21" function="internal">
        <lane id=":0/2_21_0" index="0" speed="12.00" length="2.41" shape="-0.00,2013.00 0.83,2013.41 1.65,2014.65"/>
    </edge>
    <edge id=":0/2_6" function="internal">
        <lane id=":0/2_6_0" index="0" speed="12.00" length="9.47" shape="14.65,2011.55 13.29,2011.74 12.32,2012.32 11.74,2013.29 11.55,2014.65"/>
        <lane id=":0/2_6_1" index="1" speed="12.00" length="9.47" shape="14.65,2008.25 11.85,2008.65 9.85,2009.85 8.65,2011.85 8.25,2014.65"/>
        <lane id=":0/2_6_2" index="2" speed="12.00" length="9.47" shape="14.65,2008.25 10.41,2008.65 7.37,2009.85 5.56,2011.85 4.95,2014.65"/>
    </edge>
    <edge id=":0/2_9" function="internal">
        <lane id=":0/2_9_0" index="0" speed="12.00" length="28.95" shape="14.65,2004.95 6.07,2003.72 -0.05,2000.05 -3.73,1993.93 -4.95,1985.35"/>
        <lane id=":0/2_9_1" index="1" speed="12.00" length="28.95" shape="14.65,2001.65 7.52,2000.63 2.43,1997.58 -0.63,1992.48 -1.65,1985.35"/>
    </edge>
    <edge id=":0/2_11" function="internal">
        <lane id=":0/2_11_0" index="0" speed="12.00" length="4.82" shape="14.65,2001.65 13.41,2000.83 13.00,2000.00 13.41,1999.17 14.65,1998.35"/>
    </edge>
    <edge id=":0/2_12" function="internal">
        <lane id=":0/2_12_0" index="0" speed="12.00" length="6.42" shape="11.55,1985.35 11.74,1986.71 12.33,1987.68 13.29,1988.26 14.65,1988.45"/>
        <lane id=":0/2_12_1" index="1" speed="12.00" length="6.42" shape="11.55,1985.35 11.74,1988.15 12.33,1990.15 13.29,1991.35 14.65,1991.75"/>
    </edge>
    <edge id=":0/2_14" function="internal">
        <lane id=":0/2_14_0" index="0" speed="12.00" length="29.30" shape="11.55,1985.35 11.55,1994.05 11.55,2000.00 11.55,2005.95 11.55,2014.65"/>
        <lane id=":0/2_14_1" index="1" speed="12.00" length="29.30" shape="8.25,1985.35 8.25,1994.05 8.25,2000.00 8.25,2005.95 8.25,2014.65"/>
        <lane id=":0/2_14_2" index="2" speed="12.00" length="29.30" shape="4.95,1985.35 4.95,1994.05 4.95,2000.00 4.95,2005.95 4.95,2014.65"/>
        <lane id=":0/2_14_3" index="3" speed="12.00" length="29.30" shape="1.65,1985.35 1.65,1994.05 1.65,2000.00 1.65,2005.95 1.65,2014.65"/>
    </edge>
    <edge id=":0/2_18" function="internal">
        <lane id=":0/2_18_0" index="0" speed="12.00" length="2.41" shape="1.65,1985.35 0.83,1986.59 0.00,1987.00"/>
    </edge>
    <edge id=":0/2_22" function="internal">
        <lane id=":0/2_22_0" index="0" speed="12.00" length="2.41" shape="0.00,1987.00 -0.83,1986.59 -1.65,1985.35"/>
    </edge>
    <edge id=":0/3_0" function="internal">
        <lane id=":0/3_0_0" index="0" speed="12.00" length="31.85" shape="13.15,3011.55 2.34,3010.01 -5.37,3005.38 -10.01,2997.66 -11.55,2986.85"/>
        <lane id=":0/3_0_1" index="1" speed="12.00" length="31.85" shape="13.15,3008.25 3.79,3006.91 -2.90,3002.90 -6.91,2996.21 -8.25,2986.85"/>
        <lane id=":0/3_0_2" index="2" speed="12.00" length="31.85" shape="13.15,3004.95 5.23,3003.82 -0.43,3000.42 -3.82,2994.77 -4.95,2986.85"/>
        <lane id=":0/3_0_3" index="3" speed="12.00" length="31.85" shape="13.15,3001.65 6.68,3000.72 2.05,2997.95 -0.72,2993.32 -1.65,2986.85"/>
    </edge>
    <edge id=":0/3_4" function="internal">
        <lane id=":0/3_4_0" index="0" speed="12.00" length="2.69" shape="13.15,3001.65 11.91,3000.83 11.50,3000.00 11.63,2999.75"/>
    </edge>
    <edge id=":0/3_10" function="internal">
        <lane id=":0/3_10_0" index="0" speed="12.00" length="2.13" shape="11.63,2999.75 11.91,2999.18 13.15,2998.35"/>
    </edge>
    <edge id=":0/3_5" function="internal">
        <lane id=":0/3_5_0" index="0" speed="12.00" length="10.56" shape="11.55,2986.85 11.65,2987.55 11.95,2988.05 12.45,2988.35 13.15,2988.45"/>
        <lane id=":0/3_5_1" index="1" speed="12.00" length="10.56" shape="8.25,2986.85 8.56,2988.99 9.48,2990.53 11.01,2991.44 13.15,2991.75"/>
        <lane id=":0/3_5_2" index="2" speed="12.00" length="10.56" shape="4.95,2986.85 5.46,2990.44 7.00,2993.00 9.56,2994.54 13.15,2995.05"/>
        <lane id=":0/3_5_3" index="3" speed="12.00" length="10.56" shape="1.65,2986.85 2.37,2991.88 4.53,2995.47 8.12,2997.63 13.15,2998.35"/>
    </edge>
    <edge id=":0/3_9" function="internal">
        <lane id=":0/3_9_0" index="0" speed="12.00" length="2.20" shape="1.65,2986.85 0.83,2988.09 0.19,2988.41"/>
    </edge>
    <edge id=":0/3_11" function="internal">
        <lane id=":0/3_11_0" index="0" speed="12.00" length="2.62" shape="0.19,2988.41 0.00,2988.50 -0.83,2988.09 -1.65,2986.85"/>
    </edge>
    <edge id=":1/0_0" function="internal">
        <lane id=":1/0_0_0" index="0" speed="12.00" length="9.47" shape="988.45,14.65 988.26,13.29 987.68,12.33 986.71,11.74 985.35,11.55"/>
        <lane id=":1/0_0_1" index="1" speed="12.00" length="9.47" shape="991.75,14.65 991.35,11.85 990.15,9.85 988.15,8.65 985.35,8.25"/>
        <lane id=":1/0_0_2" index="2" speed="12.00" length="9.47" shape="991.75,14.65 991.35,10.41 990.15,7.37 988.15,5.56 985.35,4.95"/>
    </edge>
    <edge id=":1/0_3" function="internal">
        <lane id=":1/0_3_0" index="0" speed="12.00" length="28.95" shape="995.05,14.65 996.27,6.07 999.95,-0.05 1006.08,-3.73 1014.65,-4.95"/>
        <lane id=":1/0_3_1" index="1" speed="12.00" length="28.95" shape="998.35,14.65 999.37,7.52 1002.43,2.43 1007.52,-0.63 1014.65,-1.65"/>
    </edge>
    <edge id=":1/0_5" function="internal">
        <lane id=":1/0_5_0" index="0" speed="12.00" length="4.82" shape="998.35,14.65 999.17,13.41 1000.00,13.00 1000.83,13.41 1001.65,14.65"/>
    </edge>
    <edge id=":1/0_6" function="internal">
        <lane id=":1/0_6_0" index="0" speed="12.00" length="6.42" shape="1014.65,11.55 1013.29,11.74 1012.33,12.33 1011.74,13.29 1011.55,14.65"/>
        <lane id=":1/0_6_1" index="1" speed="12.00" length="6.42" shape="1014.65,11.55 1011.85,11.74 1009.85,12.33 1008.65,13.29 1008.25,14.65"/>
    </edge>
    <edge id=":1/0_8" function="internal">
        <lane id=":1/0_8_0" index="0" speed="12.00" length="29.30" shape="1014.65,11.55 1005.95,11.55 1000.00,11.55 994.05,11.55 985.35,11.55"/>
        <lane id=":1/0_8_1" index="1" speed="12.00" length="29.30" shape="1014.65,8.25 1005.95,8.25 1000.00,8.25 994.05,8.25 985.35,8.25"/>
        <lane id=":1/0_8_2" index="2" speed="12.00" length="29.30" shape="1014.65,4.95 1005.95,4.95 1000.00,4.95 994.05,4.95 985.35,4.95"/>
        <lane id=":1/0_8_3" index="3" speed="12.00" length="29.30" shape="1014.65,1.65 1005.95,1.65 1000.00,1.65 994.05,1.65 985.35,1.65"/>
    </edge>
    <edge id=":1/0_12" function="internal">
        <lane id=":1/0_12_0" index="0" speed="12.00" length="2.41" shape="1014.65,1.65 1013.41,0.83 1013.00,0.00"/>
    </edge>
    <edge id=":1/0_19" function="internal">
        <lane id=":1/0_19_0" index="0" speed="12.00" length="2.41" shape="1013.00,0.00 1013.41,-0.83 1014.65,-1.65"/>
    </edge>
    <edge id=":1/0_13" function="internal">
        <lane id=":1/0_13_0" index="0" speed="12.00" length="29.30" shape="985.35,-11.55 994.05,-11.55 1000.00,-11.55 1005.95,-11.55 1014.65,-11.55"/>
        <lane id=":1/0_13_1" index="1" speed="12.00" length="29.30" shape="985.35,-8.25 994.05,-8.25 1000.00,-8.25 1005.95,-8.25 1014.65,-8.25"/>
        <lane id=":1/0_13_2" index="2" speed="12.00" length="29.30" shape="985.35,-4.95 994.05,-4.95 1000.00,-4.95 1005.95,-4.95 1014.65,-4.95"/>
    </edge>
    <edge id=":1/0_16" function="internal">
        <lane id=":1/0_16_0" index="0" speed="12.00" length="9.34" shape="985.35,-1.65 993.92,-0.63 995.29,0.05"/>
        <lane id=":1/0_16_1" index="1" speed="12.00" length="9.34" shape="985.35,-1.65 992.48,-0.63 993.62,0.05"/>
    </edge>
    <edge id=":1/0_18" function="internal">
        <lane id=":1/0_18_0" index="0" speed="12.00" length="2.41" shape="985.35,-1.65 986.59,-0.83 987.00,-0.00"/>
    </edge>
    <edge id=":1/0_20" function="internal">
        <lane id=":1/0_20_0" index="0" speed="12.00" length="18.84" shape="995.29,0.05 1000.05,2.43 1003.73,7.52 1004.95,14.65"/>
    </edge>
    <edge id=":1/0_21" function="internal">
        <lane id=":1/0_21_0" index="0" speed="12.00" length="17.76" shape="993.62,0.05 997.57,2.43 1000.63,7.52 1001.65,14.65"/>
    </edge>
    <edge id=":1/0_22" function="internal">
        <lane id=":1/0_22_0" index="0" speed="12.00" length="2.41" shape="987.00,-0.00 986.59,0.83 985.35,1.65"/>
    </edge>
    <edge id=":1/1_0" function="internal">
        <lane id=":1/1_0_0" index="0" speed="12.00" length="5.00" shape="988.45,1014.65 988.26,1013.29 987.68,1012.32 986.71,1011.74 985.35,1011.55"/>
    </edge>
    <edge id=":1/1_1" function="internal">
        <lane id=":1/1_1_0" index="0" speed="12.00" length="29.30" shape="988.45,1014.65 988.45,1005.95 988.45,1000.00 988.45,994.05 988.45,985.35"/>
        <lane id=":1/1_1_1" index="1" speed="12.00" length="29.30" shape="991.75,1014.65 991.75,1005.95 991.75,1000.00 991.75,994.05 991.75,985.35"/>
        <lane id=":1/1_1_2" index="2" speed="12.00" length="29.30" shape="995.05,1014.65 995.05,1005.95 995.05,1000.00 995.05,994.05 995.05,985.35"/>
        <lane id=":1/1_1_3" index="3" speed="12.00" length="29.30" shape="998.35,1014.65 998.35,1005.95 998.35,1000.00 998.35,994.05 998.35,985.35"/>
    </edge>
    <edge id=":1/1_5" function="internal">
        <lane id=":1/1_5_0" index="0" speed="12.00" length="8.53" shape="998.35,1014.65 999.37,1007.52 1000.05,1006.38"/>
    </edge>
    <edge id=":1/1_6" function="internal">
        <lane id=":1/1_6_0" index="0" speed="12.00" length="2.41" shape="998.35,1014.65 999.17,1013.41 1000.00,1013.00"/>
    </edge>
    <edge id=":1/1_28" function="internal">
        <lane id=":1/1_28_0" index="0" speed="12.00" length="17.76" shape="1000.05,1006.38 1002.43,1002.43 1007.52,999.37 1014.65,998.35"/>
    </edge>
    <edge id=":1/1_29" function="internal">
        <lane id=":1/1_29_0" index="0" speed="12.00" length="2.41" shape="1000.00,1013.00 1000.83,1013.41 1001.65,1014.65"/>
    </edge>
    <edge id=":1/1_7" function="internal">
        <lane id=":1/1_7_0" index="0" speed="12.00" length="7.66" shape="1014.65,1011.55 1013.29,1011.74 1012.33,1012.32 1011.74,1013.29 1011.55,1014.65"/>
        <lane id=":1/1_7_1" index="1" speed="12.00" length="7.66" shape="1014.65,1008.25 1011.85,1008.65 1009.85,1009.85 1008.65,1011.85 1008.25,1014.65"/>
    </edge>
    <edge id=":1/1_9" function="internal">
        <lane id=":1/1_9_0" index="0" speed="12.00" length="29.42" shape="1014.65,1004.95 1005.93,1005.47 1000.00,1006.60 994.07,1007.73 985.35,1008.25"/>
        <lane id=":1/1_9_1" index="1" speed="12.00" length="29.42" shape="1014.65,1004.95 1005.95,1004.95 1000.00,1004.95 994.05,1004.95 985.35,1004.95"/>
    </edge>
    <edge id=":1/1_11" function="internal">
        <lane id=":1/1_11_0" index="0" speed="12.00" length="28.95" shape="1014.65,1004.95 1006.07,1003.73 999.95,1000.05 996.27,993.92 995.05,985.35"/>
        <lane id=":1/1_11_1" index="1" speed="12.00" length="28.95" shape="1014.65,1001.65 1007.52,1000.63 1002.43,997.57 999.37,992.48 998.35,985.35"/>
    </edge>
    <edge id=":1/1_13" function="internal">
        <lane id=":1/1_13_0" index="0" speed="12.00" length="4.82" shape="1014.65,1001.65 1013.41,1000.83 1013.00,1000.00 1013.41,999.17 1014.65,998.35"/>
    </edge>
    <edge id=":1/1_14" function="internal">
        <lane id=":1/1_14_0" index="0" speed="12.00" length="5.00" shape="1011.55,985.35 1011.74,986.71 1012.32,987.68 1013.29,988.26 1014.65,988.45"/>
    </edge>
    <edge id=":1/1_15" function="internal">
        <lane id=":1/1_15_0" index="0" speed="12.00" length="29.30" shape="1011.55,985.35 1011.55,994.05 1011.55,1000.00 1011.55,1005.95 1011.55,1014.65"/>
        <lane id=":1/1_15_1" index="1" speed="12.00" length="29.30" shape="1008.25,985.35 1008.25,994.05 1008.25,1000.00 1008.25,1005.95 1008.25,1014.65"/>
        <lane id=":1/1_15_2" index="2" speed="12.00" length="29.30" shape="1004.95,985.35 1004.95,994.05 1004.95,1000.00 1004.95,1005.95 1004.95,1014.65"/>
        <lane id=":1/1_15_3" index="3" speed="12.00" length="29.30" shape="1001.65,985.35 1001.65,994.05 1001.65,1000.00 1001.65,1005.95 1001.65,1014.65"/>
    </edge>
    <edge id=":1/1_19" function="internal">
        <lane id=":1/1_19_0" index="0" speed="12.00" length="8.53" shape="1001.65,985.35 1000.63,992.48 999.95,993.62"/>
    </edge>
    <edge id=":1/1_20" function="internal">
        <lane id=":1/1_20_0" index="0" speed="12.00" length="2.41" shape="1001.65,985.35 1000.83,986.59 1000.00,987.00"/>
    </edge>
    <edge id=":1/1_30" function="internal">
        <lane id=":1/1_30_0" index="0" speed="12.00" length="17.76" shape="999.95,993.62 997.57,997.58 992.48,1000.63 985.35,1001.65"/>
    </edge>
    <edge id=":1/1_31" function="internal">
        <lane id=":1/1_31_0" index="0" speed="12.00" length="2.41" shape="1000.00,987.00 999.17,986.59 998.35,985.35"/>
    </edge>
    <edge id=":1/1_21" function="internal">
        <lane id=":1/1_21_0" index="0" speed="12.00" length="7.66" shape="985.35,988.45 986.71,988.26 987.68,987.68 988.26,986.71 988.45,985.35"/>
        <lane id=":1/1_21_1" index="1" speed="12.00" length="7.66" shape="985.35,991.75 988.15,991.35 990.15,990.15 991.35,988.15 991.75,985.35"/>
    </edge>
    <edge id=":1/1_23" function="internal">
        <lane id=":1/1_23_0" index="0" speed="12.00" length="29.42" shape="985.35,995.05 994.07,994.53 1000.00,993.40 1005.93,992.27 1014.65,991.75"/>
        <lane id=":1/1_23_1" index="1" speed="12.00" length="29.42" shape="985.35,995.05 994.05,995.05 1000.00,995.05 1005.95,995.05 1014.65,995.05"/>
    </edge>
    <edge id=":1/1_25" function="internal">
        <lane id=":1/1_25_0" index="0" speed="12.00" length="28.95" shape="985.35,995.05 993.93,996.27 1000.05,999.95 1003.73,1006.08 1004.95,1014.65"/>
        <lane id=":1/1_25_1" index="1" speed="12.00" length="28.95" shape="985.35,998.35 992.48,999.37 997.58,1002.43 1000.63,1007.52 1001.65,1014.65"/>
    </edge>
    <edge id=":1/1_27" function="internal">
        <lane id=":1/1_27_0" index="0" speed="12.00" length="4.82" shape="985.35,998.35 986.59,999.17 987.00,1000.00 986.59,1000.83 985.35,1001.65"/>
    </edge>
    <edge id=":1/2_0" function="internal">
        <lane id=":1/2_0_0" index="0" speed="12.00" length="5.00" shape="988.45,2014.65 988.26,2013.29 987.68,2012.33 986.71,2011.74 985.35,2011.55"/>
    </edge>
    <edge id=":1/2_1" function="internal">
        <lane id=":1/2_1_0" index="0" speed="12.00" length="29.30" shape="988.45,2014.65 988.45,2005.95 988.45,2000.00 988.45,1994.05 988.45,1985.35"/>
        <lane id=":1/2_1_1" index="1" speed="12.00" length="29.30" shape="991.75,2014.65 991.75,2005.95 991.75,2000.00 991.75,1994.05 991.75,1985.35"/>
        <lane id=":1/2_1_2" index="2" speed="12.00" length="29.30" shape="995.05,2014.65 995.05,2005.95 995.05,2000.00 995.05,1994.05 995.05,1985.35"/>
        <lane id=":1/2_1_3" index="3" speed="12.00" length="29.30" shape="998.35,2014.65 998.35,2005.95 998.35,2000.00 998.35,1994.05 998.35,1985.35"/>
    </edge>
    <edge id=":1/2_5" function="internal">
        <lane id=":1/2_5_0" index="0" speed="12.00" length="8.53" shape="998.35,2014.65 999.37,2007.52 1000.05,2006.38"/>
    </edge>
    <edge id=":1/2_6" function="internal">
        <lane id=":1/2_6_0" index="0" speed="12.00" length="2.41" shape="998.35,2014.65 999.17,2013.41 1000.00,2013.00"/>
    </edge>
    <edge id=":1/2_28" function="internal">
        <lane id=":1/2_28_0" index="0" speed="12.00" length="17.76" shape="1000.05,2006.38 1002.43,2002.42 1007.52,1999.37 1014.65,1998.35"/>
    </edge>
    <edge id=":1/2_29" function="internal">
        <lane id=":1/2_29_0" index="0" speed="12.00" length="2.41" shape="1000.00,2013.00 1000.83,2013.41 1001.65,2014.65"/>
    </edge>
    <edge id=":1/2_7" function="internal">
        <lane id=":1/2_7_0" index="0" speed="12.00" length="7.66" shape="1014.65,2011.55 1013.29,2011.74 1012.33,2012.32 1011.74,2013.29 1011.55,2014.65"/>
        <lane id=":1/2_7_1" index="1" speed="12.00" length="7.66" shape="1014.65,2008.25 1011.85,2008.65 1009.85,2009.85 1008.65,2011.85 1008.25,2014.65"/>
    </edge>
    <edge id=":1/2_9" function="internal">
        <lane id=":1/2_9_0" index="0" speed="12.00" length="29.42" shape="1014.65,2004.95 1005.93,2005.47 1000.00,2006.60 994.07,2007.73 985.35,2008.25"/>
        <lane id=":1/2_9_1" index="1" speed="12.00" length="29.42" shape="1014.65,2004.95 1005.95,2004.95 1000.00,2004.95 994.05,2004.95 985.35,2004.95"/>
    </edge>
    <edge id=":1/2_11" function="internal">
        <lane id=":1/2_11_0" index="0" speed="12.00" length="28.95" shape="1014.65,2004.95 1006.07,2003.72 999.95,2000.05 996.27,1993.93 995.05,1985.35"/>
        <lane id=":1/2_11_1" index="1" speed="12.00" length="28.95" shape="1014.65,2001.65 1007.52,2000.63 1002.43,1997.58 999.37,1992.48 998.35,1985.35"/>
    </edge>
    <edge id=":1/2_13" function="internal">
        <lane id=":1/2_13_0" index="0" speed="12.00" length="4.82" shape="1014.65,2001.65 1013.41,2000.83 1013.00,2000.00 1013.41,1999.17 1014.65,1998.35"/>
    </edge>
    <edge id=":1/2_14" function="internal">
        <lane id=":1/2_14_0" index="0" speed="12.00" length="5.00" shape="1011.55,1985.35 1011.74,1986.71 1012.32,1987.68 1013.29,1988.26 1014.65,1988.45"/>
    </edge>
    <edge id=":1/2_15" function="internal">
        <lane id=":1/2_15_0" index="0" speed="12.00" length="29.30" shape="1011.55,1985.35 1011.55,1994.05 1011.55,2000.00 1011.55,2005.95 1011.55,2014.65"/>
        <lane id=":1/2_15_1" index="1" speed="12.00" length="29.30" shape="1008.25,1985.35 1008.25,1994.05 1008.25,2000.00 1008.25,2005.95 1008.25,2014.65"/>
        <lane id=":1/2_15_2" index="2" speed="12.00" length="29.30" shape="1004.95,1985.35 1004.95,1994.05 1004.95,2000.00 1004.95,2005.95 1004.95,2014.65"/>
        <lane id=":1/2_15_3" index="3" speed="12.00" length="29.30" shape="1001.65,1985.35 1001.65,1994.05 1001.65,2000.00 1001.65,2005.95 1001.65,2014.65"/>
    </edge>
    <edge id=":1/2_19" function="internal">
        <lane id=":1/2_19_0" index="0" speed="12.00" length="8.53" shape="1001.65,1985.35 1000.63,1992.48 999.95,1993.62"/>
    </edge>
    <edge id=":1/2_20" function="internal">
        <lane id=":1/2_20_0" index="0" speed="12.00" length="2.41" shape="1001.65,1985.35 1000.83,1986.59 1000.00,1987.00"/>
    </edge>
    <edge id=":1/2_30" function="internal">
        <lane id=":1/2_30_0" index="0" speed="12.00" length="17.76" shape="999.95,1993.62 997.57,1997.58 992.48,2000.63 985.35,2001.65"/>
    </edge>
    <edge id=":1/2_31" function="internal">
        <lane id=":1/2_31_0" index="0" speed="12.00" length="2.41" shape="1000.00,1987.00 999.17,1986.59 998.35,1985.35"/>
    </edge>
    <edge id=":1/2_21" function="internal">
        <lane id=":1/2_21_0" index="0" speed="12.00" length="7.66" shape="985.35,1988.45 986.71,1988.26 987.68,1987.68 988.26,1986.71 988.45,1985.35"/>
        <lane id=":1/2_21_1" index="1" speed="12.00" length="7.66" shape="985.35,1991.75 988.15,1991.35 990.15,1990.15 991.35,1988.15 991.75,1985.35"/>
    </edge>
    <edge id=":1/2_23" function="internal">
        <lane id=":1/2_23_0" index="0" speed="12.00" length="29.42" shape="985.35,1995.05 994.07,1994.53 1000.00,1993.40 1005.93,1992.27 1014.65,1991.75"/>
        <lane id=":1/2_23_1" index="1" speed="12.00" length="29.42" shape="985.35,1995.05 994.05,1995.05 1000.00,1995.05 1005.95,1995.05 1014.65,1995.05"/>
    </edge>
    <edge id=":1/2_25" function="internal">
        <lane id=":1/2_25_0" index="0" speed="12.00" length="28.95" shape="985.35,1995.05 993.93,1996.28 1000.05,1999.95 1003.73,2006.07 1004.95,2014.65"/>
        <lane id=":1/2_25_1" index="1" speed="12.00" length="28.95" shape="985.35,1998.35 992.48,1999.37 997.58,2002.42 1000.63,2007.52 1001.65,2014.65"/>
    </edge>
    <edge id=":1/2_27" function="internal">
        <lane id=":1/2_27_0" index="0" speed="12.00" length="4.82" shape="985.35,1998.35 986.59,1999.18 987.00,2000.00 986.59,2000.83 985.35,2001.65"/>
    </edge>
    <edge id=":1/3_0" function="internal">
        <lane id=":1/3_0_0" index="0" speed="12.00" length="29.30" shape="1014.65,3011.55 1005.95,3011.55 1000.00,3011.55 994.05,3011.55 985.35,3011.55"/>
        <lane id=":1/3_0_1" index="1" speed="12.00" length="29.30" shape="1014.65,3008.25 1005.95,3008.25 1000.00,3008.25 994.05,3008.25 985.35,3008.25"/>
        <lane id=":1/3_0_2" index="2" speed="12.00" length="29.30" shape="1014.65,3004.95 1005.95,3004.95 1000.00,3004.95 994.05,3004.95 985.35,3004.95"/>
    </edge>
    <edge id=":1/3_3" function="internal">
        <lane id=":1/3_3_0" index="0" speed="12.00" length="9.34" shape="1014.65,3001.65 1006.08,3000.63 1004.71,2999.95"/>
        <lane id=":1/3_3_1" index="1" speed="12.00" length="9.34" shape="1014.65,3001.65 1007.52,3000.63 1006.38,2999.95"/>
    </edge>
    <edge id=":1/3_5" function="internal">
        <lane id=":1/3_5_0" index="0" speed="12.00" length="2.41" shape="1014.65,3001.65 1013.41,3000.83 1013.00,3000.00"/>
    </edge>
    <edge id=":1/3_19" function="internal">
        <lane id=":1/3_19_0" index="0" speed="12.00" length="18.84" shape="1004.71,2999.95 999.95,2997.58 996.27,2992.48 995.05,2985.35"/>
    </edge>
    <edge id=":1/3_20" function="internal">
        <lane id=":1/3_20_0" index="0" speed="12.00" length="17.76" shape="1006.38,2999.95 1002.43,2997.58 999.37,2992.48 998.35,2985.35"/>
    </edge>
    <edge id=":1/3_21" function="internal">