<?xml version="1.0" encoding="UTF-8"?>

<!-- generated on 02/22/17 20:15:22 by SUMO netconvert Version 0.24.0
<?xml version="1.0" encoding="UTF-8"?>

<configuration xmlns:xsi="http://www.w3.org/2001/XMLSchema-instance" xsi:noNamespaceSchemaLocation="http://sumo.dlr.de/xsd/netconvertConfiguration.xsd">

    <input>
        <type-files value="F:\sumo-win32-0.24.0\sumo-0.24.0\/data/typemap/osmNetconvert.typ.xml"/>
        <osm-files value="target.osm"/>
    </input>

    <output>
        <output-file value="input_net.net.xml"/>
    </output>

    <projection>
        <proj.utm value="true"/>
    </projection>

</configuration>
-->

<net version="0.13" xmlns:xsi="http://www.w3.org/2001/XMLSchema-instance" xsi:noNamespaceSchemaLocation="http://sumo.dlr.de/xsd/net_file.xsd">

    <location netOffset="-728220.86,-2538637.28" convBoundary="0.00,0.00,24227.09,51199.45" origBoundary="113.227955,22.938203,113.464749,23.401451" projParameter="+proj=utm +zone=49 +ellps=WGS84 +datum=WGS84 +units=m +no_defs"/>

    <type id="highway.bridleway" priority="1" numLanes="1" speed="2.78" allow="pedestrian" oneway="1" width="2.00"/>
    <type id="highway.bus_guideway" priority="1" numLanes="1" speed="8.33" allow="bus" oneway="1"/>
    <type id="highway.cycleway" priority="1" numLanes="1" speed="5.56" allow="bicycle" oneway="0" width="1.00"/>
    <type id="highway.footway" priority="1" numLanes="1" speed="8.33" allow="pedestrian" oneway="1" width="2.00"/>
    <type id="highway.ford" priority="1" numLanes="1" speed="2.78" allow="army" oneway="0"/>
    <type id="highway.living_street" priority="3" numLanes="1" speed="2.78" disallow="tram rail_urban rail rail_electric ship" oneway="0"/>
    <type id="highway.motorway" priority="13" numLanes="2" speed="44.44" allow="private emergency authority army vip passenger hov taxi bus coach delivery truck trailer motorcycle evehicle custom1 custom2" oneway="1"/>
    <type id="highway.motorway_link" priority="12" numLanes="1" speed="22.22" allow="private emergency authority army vip passenger hov taxi bus coach delivery truck trailer motorcycle evehicle custom1 custom2" oneway="1"/>
    <type id="highway.path" priority="1" numLanes="1" speed="2.78" allow="bicycle pedestrian" oneway="1" width="2.00"/>
    <type id="highway.pedestrian" priority="1" numLanes="1" speed="8.33" allow="pedestrian" oneway="1" width="2.00"/>
    <type id="highway.primary" priority="9" numLanes="2" speed="27.78" disallow="tram rail_urban rail rail_electric ship" oneway="0"/>
    <type id="highway.primary_link" priority="8" numLanes="1" speed="22.22" disallow="tram rail_urban rail rail_electric ship" oneway="0"/>
    <type id="highway.raceway" priority="14" numLanes="2" speed="83.33" allow="vip" oneway="0"/>
    <type id="highway.residential" priority="4" numLanes="1" speed="13.89" disallow="tram rail_urban rail rail_electric ship" oneway="0"/>
    <type id="highway.secondary" priority="7" numLanes="2" speed="27.78" disallow="tram rail_urban rail rail_electric ship" oneway="0"/>
    <type id="highway.secondary_link" priority="6" numLanes="1" speed="22.22" disallow="tram rail_urban rail rail_electric ship" oneway="0"/>
    <type id="highway.service" priority="2" numLanes="1" speed="5.56" allow="delivery bicycle pedestrian" oneway="0"/>
    <type id="highway.services" priority="1" numLanes="1" speed="8.33" disallow="tram rail_urban rail rail_electric ship" oneway="0"/>
    <type id="highway.stairs" priority="1" numLanes="1" speed="1.39" allow="pedestrian" oneway="1" width="2.00"/>
    <type id="highway.step" priority="1" numLanes="1" speed="1.39" allow="pedestrian" oneway="1" width="2.00"/>
    <type id="highway.steps" priority="1" numLanes="1" speed="1.39" allow="pedestrian" oneway="1" width="2.00"/>
    <type id="highway.tertiary" priority="6" numLanes="1" speed="22.22" disallow="tram rail_urban rail rail_electric ship" oneway="0"/>
    <type id="highway.tertiary_link" priority="5" numLanes="1" speed="22.22" disallow="tram rail_urban rail rail_electric ship" oneway="0"/>
    <type id="highway.track" priority="1" numLanes="1" speed="5.56" disallow="tram rail_urban rail rail_electric ship" oneway="0"/>
    <type id="highway.trunk" priority="11" numLanes="2" speed="27.78" disallow="tram rail_urban rail rail_electric bicycle pedestrian ship" oneway="0"/>
    <type id="highway.trunk_link" priority="10" numLanes="1" speed="22.22" disallow="tram rail_urban rail rail_electric bicycle pedestrian ship" oneway="0"/>
    <type id="highway.unclassified" priority="5" numLanes="1" speed="13.89" disallow="tram rail_urban rail rail_electric ship" oneway="0"/>
    <type id="highway.unsurfaced" priority="1" numLanes="1" speed="8.33" disallow="tram rail_urban rail rail_electric ship" oneway="0"/>
    <type id="railway.light_rail" priority="15" numLanes="1" speed="27.78" allow="rail_urban" oneway="1"/>
    <type id="railway.preserved" priority="15" numLanes="1" speed="27.78" allow="rail" oneway="1"/>
    <type id="railway.rail" priority="15" numLanes="1" speed="83.33" allow="rail rail_electric" oneway="1"/>
    <type id="railway.subway" priority="15" numLanes="1" speed="27.78" allow="rail_urban" oneway="1"/>
    <type id="railway.tram" priority="15" numLanes="1" speed="13.89" allow="tram" oneway="1"/>

    <edge id=":10002_0" function="internal">
        <lane id=":10002_0_0" index="0" disallow="tram rail_urban rail rail_electric ship" speed="22.22" length="12.62" shape="8337.15,20382.29 8337.17,20385.67 8337.18,20388.60 8337.19,20391.54 8337.22,20394.91"/>
    </edge>
    <edge id=":10002_1" function="internal">
        <lane id=":10002_1_0" index="0" disallow="tram rail_urban rail rail_electric ship" speed="22.22" length="12.63" shape="8333.55,20382.93 8334.82,20386.09 8336.00,20388.81 8336.86,20391.59 8337.22,20394.91"/>
    </edge>
    <edge id=":10015_0" function="internal">
        <lane id=":10015_0_0" index="0" disallow="tram rail_urban rail rail_electric ship" speed="22.22" length="18.47" shape="8302.66,21079.81 8302.57,21075.52 8302.47,21070.57 8302.43,21065.63 8302.54,21061.34"/>
    </edge>
    <edge id=":10015_1" function="internal">
        <lane id=":10015_1_0" index="0" disallow="tram rail_urban rail rail_electric ship" speed="22.22" length="14.36" shape="8296.59,21074.26 8298.46,21071.08 8300.33,21068.01 8301.82,21064.84 8302.54,21061.34"/>
    </edge>
    <edge id=":10015_2" function="internal">
        <lane id=":10015_2_0" index="0" disallow="tram rail_urban rail rail_electric ship" speed="22.22" length="18.47" shape="8299.17,21079.49 8300.07,21075.29 8301.12,21070.45 8302.03,21065.59 8302.54,21061.34"/>
    </edge>
    <edge id=":10016_0" function="internal">
        <lane id=":10016_0_0" index="0" disallow="tram rail_urban rail rail_electric ship" speed="22.22" length="5.26" shape="8352.14,21338.24 8352.54,21339.62 8353.30,21340.52 8354.41,21340.97 8355.86,21340.95"/>
    </edge>
    <edge id=":10016_1" function="internal">
        <lane id=":10016_1_0" index="0" disallow="tram rail_urban rail rail_electric ship" speed="22.22" length="6.54" shape="8352.14,21338.24 8353.49,21344.64"/>
    </edge>
    <edge id=":10016_2" function="internal">
        <lane id=":10016_2_0" index="0" disallow="tram rail_urban rail rail_electric ship" speed="22.22" length="6.54" shape="8349.36,21341.63 8355.86,21340.95"/>
    </edge>
    <edge id=":10016_3" function="internal">
        <lane id=":10016_3_0" index="0" disallow="tram rail_urban rail rail_electric ship" speed="22.22" length="1.98" shape="8349.36,21341.63 8350.83,21341.75 8351.29,21341.97"/>
    </edge>
    <edge id=":10016_4" function="internal">
        <lane id=":10016_4_0" index="0" speed="22.22" length="3.60" shape="8351.29,21341.97 8352.01,21342.30 8352.90,21343.26 8353.49,21344.64"/>
    </edge>
    <edge id=":10017_0" function="internal">
        <lane id=":10017_0_0" index="0" disallow="tram rail_urban rail rail_electric ship" speed="27.78" length="9.90" shape="8352.24,19659.91 8352.57,19661.20 8353.58,19662.85 8355.28,19664.85 8357.68,19667.22"/>
        <lane id=":10017_0_1" index="1" disallow="tram rail_urban rail rail_electric ship" speed="27.78" length="9.90" shape="8352.24,19659.91 8352.39,19663.01 8352.97,19665.66 8353.99,19667.87 8355.44,19669.64"/>
    </edge>
    <edge id=":10017_2" function="internal">
        <lane id=":10017_2_0" index="0" disallow="tram rail_urban rail rail_electric bicycle pedestrian ship" speed="27.78" length="11.18" shape="8352.24,19659.91 8352.15,19663.26 8352.01,19665.54 8351.82,19667.82 8351.54,19671.16"/>
        <lane id=":10017_2_1" index="1" disallow="tram rail_urban rail rail_electric bicycle pedestrian ship" speed="27.78" length="11.18" shape="8348.94,19659.85 8348.85,19663.13 8348.71,19665.38 8348.52,19667.62 8348.25,19670.90"/>
    </edge>
    <edge id=":10021_0" function="internal">
        <lane id=":10021_0_0" index="0" disallow="tram rail_urban rail rail_electric ship" speed="25.00" length="5.46" shape="8310.00,19810.05 8307.50,19805.19"/>
    </edge>
    <edge id=":10021_1" function="internal">
        <lane id=":10021_1_0" index="0" disallow="tram rail_urban rail rail_electric bicycle pedestrian ship" speed="27.78" length="5.05" shape="8310.00,19810.05 8311.04,19805.04"/>
        <lane id=":10021_1_1" index="1" disallow="tram rail_urban rail rail_electric bicycle pedestrian ship" speed="27.78" length="5.05" shape="8313.30,19810.18 8314.33,19805.30"/>
    </edge>
    <edge id=":10049_0" function="internal">
        <lane id=":10049_0_0" index="0" disallow="tram rail_urban rail rail_electric bicycle pedestrian ship" speed="27.78" length="13.00" shape="8308.17,21032.38 8307.54,21028.54 8306.87,21025.94 8306.29,21023.33 8305.96,21019.46"/>
        <lane id=":10049_0_1" index="1" disallow="tram rail_urban rail rail_electric bicycle pedestrian ship" speed="27.78" length="13.00" shape="8311.45,21032.01 8310.83,21028.24 8310.16,21025.70 8309.59,21023.14 8309.26,21019.36"/>
    </edge>
    <edge id=":10049_2" function="internal">
        <lane id=":10049_2_0" index="0" disallow="tram rail_urban rail rail_electric bicycle pedestrian ship" speed="25.00" length="13.01" shape="8304.64,21032.37 8305.13,21029.17 8305.61,21026.49 8305.93,21023.52 8305.96,21019.46"/>
    </edge>
    <edge id=":10050_0" function="internal">
        <lane id=":10050_0_0" index="0" disallow="tram rail_urban rail rail_electric ship" speed="25.00" length="5.77" shape="8309.71,20691.43 8306.25,20686.81"/>
    </edge>
    <edge id=":10050_1" function="internal">
        <lane id=":10050_1_0" index="0" disallow="tram rail_urban rail rail_electric bicycle pedestrian ship" speed="27.78" length="5.00" shape="8309.71,20691.43 8309.76,20686.43"/>
        <lane id=":10050_1_1" index="1" disallow="tram rail_urban rail rail_electric bicycle pedestrian ship" speed="27.78" length="5.00" shape="8313.01,20691.47 8313.06,20686.47"/>
    </edge>
    <edge id=":10051_0" function="internal">
        <lane id=":10051_0_0" index="0" disallow="tram rail_urban rail rail_electric bicycle pedestrian ship" speed="27.78" length="18.36" shape="8312.11,19969.40 8311.98,19963.97 8311.99,19960.25 8311.93,19956.54 8311.58,19951.12"/>
        <lane id=":10051_0_1" index="1" disallow="tram rail_urban rail rail_electric bicycle pedestrian ship" speed="27.78" length="18.36" shape="8315.40,19969.27 8315.27,19963.80 8315.28,19960.05 8315.22,19956.31 8314.86,19950.85"/>
    </edge>
    <edge id=":10051_2" function="internal">
        <lane id=":10051_2_0" index="0" disallow="tram rail_urban rail rail_electric bicycle pedestrian ship" speed="25.00" length="18.39" shape="8308.60,19969.14 8309.56,19965.53 8310.72,19961.70 8311.56,19957.09 8311.58,19951.12"/>
    </edge>
    <edge id=":10052_0" function="internal">
        <lane id=":10052_0_0" index="0" disallow="tram rail_urban rail rail_electric ship" speed="25.00" length="12.95" shape="8337.35,19958.24 8337.29,19962.27 8337.52,19965.24 8337.90,19967.92 8338.28,19971.13"/>
    </edge>
    <edge id=":10052_1" function="internal">
        <lane id=":10052_1_0" index="0" disallow="tram rail_urban rail rail_electric bicycle pedestrian ship" speed="27.78" length="12.94" shape="8334.06,19958.06 8334.14,19961.92 8334.61,19964.57 8334.98,19967.21 8334.76,19971.04"/>
        <lane id=":10052_1_1" index="1" disallow="tram rail_urban rail rail_electric bicycle pedestrian ship" speed="27.78" length="12.94" shape="8334.06,19958.06 8333.63,19961.82 8332.97,19964.34 8332.22,19966.86 8331.50,19970.59"/>
    </edge>
    <edge id=":10053_0" function="internal">
        <lane id=":10053_0_0" index="0" disallow="tram rail_urban rail rail_electric ship" speed="22.22" length="10.63" shape="8346.32,21355.04 8347.15,21358.01 8347.80,21360.18 8348.77,21362.19 8350.51,21364.69"/>
    </edge>
    <edge id=":10053_1" function="internal">
        <lane id=":10053_1_0" index="0" disallow="tram rail_urban rail rail_electric ship" speed="22.22" length="10.61" shape="8342.98,21357.33 8345.46,21359.12 8347.14,21360.59 8348.62,21362.27 8350.51,21364.69"/>
    </edge>
    <edge id=":10055_0" function="internal">
        <lane id=":10055_0_0" index="0" disallow="tram rail_urban rail rail_electric ship" speed="25.00" length="4.99" shape="8107.23,21382.31 8105.87,21382.35 8104.84,21382.82 8104.15,21383.71 8103.79,21385.03"/>
    </edge>
    <edge id=":10055_1" function="internal">
        <lane id=":10055_1_0" index="0" disallow="tram rail_urban rail rail_electric ship" speed="27.78" length="9.41" shape="8107.23,21382.31 8097.85,21381.15"/>
        <lane id=":10055_1_1" index="1" disallow="tram rail_urban rail rail_electric ship" speed="27.78" length="9.41" shape="8107.59,21379.03 8098.30,21377.88"/>
    </edge>
    <edge id=":10055_3" function="internal">
        <lane id=":10055_3_0" index="0" disallow="tram rail_urban rail rail_electric ship" speed="25.00" length="4.99" shape="8100.52,21384.63 8100.49,21383.26 8100.04,21382.23 8099.16,21381.52 8097.85,21381.15"/>
    </edge>
    <edge id=":10055_4" function="internal">
        <lane id=":10055_4_0" index="0" disallow="tram rail_urban rail rail_electric ship" speed="22.22" length="4.82" shape="8100.52,21384.63 8101.49,21383.50 8102.36,21383.19 8103.12,21383.70 8103.79,21385.03"/>
    </edge>
    <edge id=":10056_0" function="internal">
        <lane id=":10056_0_0" index="0" disallow="tram rail_urban rail rail_electric ship" speed="22.22" length="9.50" shape="8106.30,21389.82 8096.89,21388.50"/>
    </edge>
    <edge id=":10056_1" function="internal">
        <lane id=":10056_1_0" index="0" disallow="tram rail_urban rail rail_electric ship" speed="22.22" length="7.86" shape="8106.30,21389.82 8103.57,21389.23 8101.66,21388.37 8100.60,21387.24 8100.37,21385.83"/>
    </edge>
    <edge id=":10056_2" function="internal">
        <lane id=":10056_2_0" index="0" disallow="tram rail_urban rail rail_electric ship" speed="22.22" length="1.16" shape="8103.65,21386.23 8103.19,21387.30"/>
    </edge>
    <edge id=":10056_3" function="internal">
        <lane id=":10056_3_0" index="0" disallow="tram rail_urban rail rail_electric ship" speed="22.22" length="1.21" shape="8103.65,21386.23 8102.86,21387.15"/>
    </edge>
    <edge id=":10056_4" function="internal">
        <lane id=":10056_4_0" index="0" speed="22.22" length="6.73" shape="8103.19,21387.30 8103.08,21387.56 8101.76,21388.38 8099.70,21388.69 8096.89,21388.50"/>
    </edge>
    <edge id=":10056_5" function="internal">
        <lane id=":10056_5_0" index="0" speed="22.22" length="3.61" shape="8102.86,21387.15 8102.68,21387.36 8101.81,21387.67 8101.04,21387.16 8100.37,21385.83"/>
    </edge>
    <edge id=":10059_0" function="internal">
        <lane id=":10059_0_0" index="0" disallow="tram rail_urban rail rail_electric ship" speed="25.00" length="50.43" shape="8335.71,20725.58 8334.32,20744.37 8335.23,20758.52 8338.43,20768.05 8343.93,20772.94"/>
    </edge>
    <edge id=":10059_1" function="internal">
        <lane id=":10059_1_0" index="0" disallow="tram rail_urban rail rail_electric ship" speed="22.22" length="52.47" shape="8335.71,20725.58 8335.45,20735.17 8335.48,20751.80 8335.71,20768.44 8336.05,20778.04"/>
    </edge>
    <edge id=":10059_2" function="internal">
        <lane id=":10059_2_0" index="0" disallow="tram rail_urban rail rail_electric bicycle pedestrian ship" speed="25.00" length="52.90" shape="8335.71,20725.58 8335.08,20734.52 8334.22,20750.10 8333.33,20766.63 8332.62,20778.39"/>
    </edge>
    <edge id=":10059_3" function="internal">
        <lane id=":10059_3_0" index="0" disallow="tram rail_urban rail rail_electric ship" speed="27.78" length="51.14" shape="8332.32,20725.36 8333.17,20746.08 8334.77,20761.27 8337.14,20770.93 8340.27,20775.06"/>
    </edge>
    <edge id=":10059_4" function="internal">
        <lane id=":10059_4_0" index="0" disallow="tram rail_urban rail rail_electric ship" speed="25.00" length="52.81" shape="8332.32,20725.36 8332.92,20737.11 8334.08,20753.58 8335.29,20769.11 8336.05,20778.04"/>
    </edge>
    <edge id=":10059_5" function="internal">
        <lane id=":10059_5_0" index="0" disallow="tram rail_urban rail rail_electric bicycle pedestrian ship" speed="27.78" length="52.95" shape="8329.03,20725.42 8329.26,20736.51 8329.52,20751.90 8329.61,20767.29 8329.32,20778.37"/>
    </edge>
    <edge id=":10071_0" function="internal">
        <lane id=":10071_0_0" index="0" disallow="tram rail_urban rail rail_electric ship" speed="13.89" length="20.57" shape="9657.63,21734.98 9658.91,21736.46 9662.60,21737.72 9668.69,21738.76 9677.19,21739.58"/>
    </edge>
    <edge id=":10071_1" function="internal">
        <lane id=":10071_1_0" index="0" disallow="tram rail_urban rail rail_electric ship" speed="13.89" length="6.50" shape="9657.63,21734.98 9657.95,21741.47"/>
    </edge>
    <edge id=":10080_0" function="internal">
        <lane id=":10080_0_0" index="0" disallow="tram rail_urban rail rail_electric ship" speed="13.89" length="6.06" shape="10050.91,21722.67 10050.71,21716.61"/>
    </edge>
    <edge id=":10080_1" function="internal">
        <lane id=":10080_1_0" index="0" disallow="tram rail_urban rail rail_electric ship" speed="13.89" length="2.54" shape="10050.91,21722.67 10051.64,21721.37 10052.43,21720.89 10052.55,21720.94"/>
    </edge>
    <edge id=":10080_6" function="internal">
        <lane id=":10080_6_0" index="0" speed="13.89" length="2.28" shape="10052.55,21720.94 10053.28,21721.24 10054.20,21722.41"/>
    </edge>
    <edge id=":10080_2" function="internal">
        <lane id=":10080_2_0" index="0" disallow="tram rail_urban rail rail_electric ship" speed="13.89" length="5.77" shape="10054.01,21716.65 10054.20,21722.41"/>
    </edge>
    <edge id=":10080_3" function="internal">
        <lane id=":10080_3_0" index="0" disallow="tram rail_urban rail rail_electric ship" speed="13.89" length="2.41" shape="10054.01,21716.65 10053.17,21717.88 10052.34,21718.28"/>
    </edge>
    <edge id=":10080_7" function="internal">
        <lane id=":10080_7_0" index="0" speed="13.89" length="2.41" shape="10052.34,21718.28 10051.52,21717.86 10050.71,21716.61"/>
    </edge>
    <edge id=":10080_4" function="internal">
        <lane id=":10080_4_0" index="0" disallow="tram rail_urban rail rail_electric ship" speed="13.89" length="4.95" shape="10047.64,21719.74 10048.97,21719.51 10049.93,21718.91 10050.51,21717.95 10050.71,21716.61"/>
    </edge>
    <edge id=":10080_5" function="internal">
        <lane id=":10080_5_0" index="0" disallow="tram rail_urban rail rail_electric ship" speed="13.89" length="7.72" shape="10047.64,21719.74 10050.43,21719.83 10052.45,21720.31 10053.71,21721.17 10054.20,21722.41"/>
    </edge>
    <edge id=":10081_0" function="internal">
        <lane id=":10081_0_0" index="0" disallow="tram rail_urban rail rail_electric ship" speed="20.84" length="5.64" shape="10065.04,21802.19 10065.50,21803.84 10066.24,21805.00 10067.26,21805.68 10068.56,21805.89"/>
    </edge>
    <edge id=":10081_1" function="internal">
        <lane id=":10081_1_0" index="0" disallow="tram rail_urban rail rail_electric ship" speed="13.89" length="4.82" shape="10065.04,21802.19 10064.43,21803.55 10063.69,21804.09 10062.81,21803.83 10061.78,21802.74"/>
    </edge>
    <edge id=":10081_2" function="internal">
        <lane id=":10081_2_0" index="0" disallow="tram rail_urban rail rail_electric ship" speed="20.84" length="5.18" shape="10059.00,21806.13 10060.43,21805.89 10061.37,21805.24 10061.82,21804.19 10061.78,21802.74"/>
    </edge>
    <edge id=":10081_3" function="internal">
        <lane id=":10081_3_0" index="0" disallow="tram rail_urban rail rail_electric ship" speed="27.78" length="9.57" shape="10059.00,21806.13 10068.56,21805.89"/>
        <lane id=":10081_3_1" index="1" disallow="tram rail_urban rail rail_electric ship" speed="27.78" length="9.57" shape="10059.08,21809.43 10068.65,21809.19"/>
    </edge>
    <edge id=":10087_0" function="internal">
        <lane id=":10087_0_0" index="0" disallow="tram rail_urban rail rail_electric ship" speed="18.06" length="5.28" shape="10058.35,21642.70 10057.03,21642.96 10056.07,21643.64 10055.48,21644.73 10055.24,21646.24"/>
    </edge>
    <edge id=":10087_1" function="internal">
        <lane id=":10087_1_0" index="0" disallow="tram rail_urban rail rail_electric ship" speed="22.22" length="9.51" shape="10058.35,21642.70 10048.84,21643.03"/>
    </edge>
    <edge id=":10087_2" function="internal">
        <lane id=":10087_2_0" index="0" disallow="tram rail_urban rail rail_electric ship" speed="22.22" length="2.41" shape="10058.35,21642.70 10057.08,21641.92 10056.64,21641.11"/>
    </edge>
    <edge id=":10087_9" function="internal">
        <lane id=":10087_9_0" index="0" speed="22.22" length="2.41" shape="10056.64,21641.11 10057.02,21640.27 10058.23,21639.40"/>
    </edge>
    <edge id=":10087_3" function="internal">
        <lane id=":10087_3_0" index="0" disallow="tram rail_urban rail rail_electric ship" speed="22.22" length="9.51" shape="10048.72,21639.74 10058.23,21639.40"/>
    </edge>
    <edge id=":10087_4" function="internal">
        <lane id=":10087_4_0" index="0" disallow="tram rail_urban rail rail_electric ship" speed="18.06" length="5.33" shape="10048.72,21639.74 10051.66,21640.05 10053.72,21641.24"/>
    </edge>
    <edge id=":10087_5" function="internal">
        <lane id=":10087_5_0" index="0" disallow="tram rail_urban rail rail_electric ship" speed="22.22" length="2.41" shape="10048.72,21639.74 10049.99,21640.52 10050.43,21641.33"/>
    </edge>
    <edge id=":10087_10" function="internal">
        <lane id=":10087_10_0" index="0" speed="18.06" length="5.33" shape="10053.72,21641.24 10054.92,21643.30 10055.24,21646.24"/>
    </edge>
    <edge id=":10087_11" function="internal">
        <lane id=":10087_11_0" index="0" speed="22.22" length="2.41" shape="10050.43,21641.33 10050.04,21642.17 10048.84,21643.03"/>
    </edge>
    <edge id=":10087_6" function="internal">
        <lane id=":10087_6_0" index="0" disallow="tram rail_urban rail rail_electric ship" speed="18.06" length="5.08" shape="10051.94,21646.13 10051.79,21644.73 10051.22,21643.75 10050.23,21643.18 10048.84,21643.03"/>
    </edge>
    <edge id=":10087_7" function="internal">
        <lane id=":10087_7_0" index="0" disallow="tram rail_urban rail rail_electric ship" speed="18.06" length="10.35" shape="10051.94,21646.13 10052.41,21643.27 10053.62,21641.19 10055.56,21639.90 10058.23,21639.40"/>
    </edge>
    <edge id=":10087_8" function="internal">
        <lane id=":10087_8_0" index="0" disallow="tram rail_urban rail rail_electric ship" speed="13.89" length="4.82" shape="10051.94,21646.13 10052.81,21644.92 10053.65,21644.53 10054.46,21644.97 10055.24,21646.24"/>
    </edge>
    <edge id=":10099_0" function="internal">
        <lane id=":10099_0_0" index="0" allow="delivery bicycle pedestrian" speed="5.56" length="0.10" shape="9882.55,21722.53 9882.55,21722.53"/>
    </edge>
    <edge id=":10100_0" function="internal">
        <lane id=":10100_0_0" index="0" disallow="tram rail_urban rail rail_electric ship" speed="13.89" length="5.00" shape="9920.49,21650.64 9920.25,21649.29 9919.63,21648.34 9918.64,21647.80 9917.28,21647.65"/>
    </edge>
    <edge id=":10100_1" function="internal">
        <lane id=":10100_1_0" index="0" disallow="tram rail_urban rail rail_electric ship" speed="13.89" length="7.85" shape="9920.49,21650.64 9920.58,21647.84 9921.09,21645.82 9922.02,21644.58 9923.36,21644.14"/>
    </edge>
    <edge id=":10100_2" function="internal">
        <lane id=":10100_2_0" index="0" disallow="tram rail_urban rail rail_electric ship" speed="22.22" length="6.20" shape="9923.48,21647.43 9917.28,21647.65"/>
    </edge>
    <edge id=":10100_3" function="internal">
        <lane id=":10100_3_0" index="0" disallow="tram rail_urban rail rail_electric ship" speed="22.22" length="2.41" shape="9923.48,21647.43 9922.21,21646.65 9921.77,21645.84"/>
    </edge>
    <edge id=":10100_6" function="internal">
        <lane id=":10100_6_0" index="0" speed="22.22" length="2.41" shape="9921.77,21645.84 9922.15,21645.00 9923.36,21644.14"/>
    </edge>
    <edge id=":10100_4" function="internal">
        <lane id=":10100_4_0" index="0" disallow="tram rail_urban rail rail_electric ship" speed="22.22" length="6.20" shape="9917.16,21644.35 9923.36,21644.14"/>
    </edge>
    <edge id=":10100_5" function="internal">
        <lane id=":10100_5_0" index="0" disallow="tram rail_urban rail rail_electric ship" speed="22.22" length="2.41" shape="9917.16,21644.35 9918.43,21645.13 9918.87,21645.94"/>
    </edge>
    <edge id=":10100_7" function="internal">
        <lane id=":10100_7_0" index="0" speed="22.22" length="2.41" shape="9918.87,21645.94 9918.49,21646.78 9917.28,21647.65"/>
    </edge>
    <edge id=":10101_0" function="internal">
        <lane id=":10101_0_0" index="0" disallow="tram rail_urban rail rail_electric ship" speed="25.00" length="5.22" shape="10182.60,22123.67 10182.05,22118.47"/>
    </edge>
    <edge id=":10101_1" function="internal">
        <lane id=":10101_1_0" index="0" disallow="tram rail_urban rail rail_electric bicycle pedestrian ship" speed="27.78" length="5.26" shape="10182.60,22123.67 10185.47,22119.13"/>
        <lane id=":10101_1_1" index="1" disallow="tram rail_urban rail rail_electric bicycle pedestrian ship" speed="27.78" length="5.26" shape="10185.82,22124.38 10188.64,22120.07"/>
    </edge>
    <edge id=":10102_0" function="internal">
        <lane id=":10102_0_0" index="0" disallow="tram rail_urban rail rail_electric ship" speed="22.22" length="13.48" shape="10214.36,21672.21 10213.55,21668.83 10212.27,21665.89 10210.70,21663.03 10209.06,21659.90"/>
    </edge>
    <edge id=":10102_1" function="internal">
        <lane id=":10102_1_0" index="0" disallow="tram rail_urban rail rail_electric ship" speed="22.22" length="13.48" shape="10214.36,21672.21 10213.89,21668.73 10213.45,21665.53 10213.01,21662.33 10212.53,21658.86"/>
    </edge>
    <edge id=":10118_0" function="internal">
        <lane id=":10118_0_0" index="0" disallow="tram rail_urban rail rail_electric ship" speed="25.00" length="5.57" shape="8264.87,20325.01 8260.73,20321.29"/>
    </edge>
    <edge id=":10118_1" function="internal">
        <lane id=":10118_1_0" index="0" disallow="tram rail_urban rail rail_electric ship" speed="27.78" length="5.00" shape="8265.73,20321.30 8260.73,20321.29"/>
        <lane id=":10118_1_1" index="1" disallow="tram rail_urban rail rail_electric ship" speed="27.78" length="5.00" shape="8265.73,20318.00 8260.73,20317.99"/>
    </edge>
    <edge id=":10131_0" function="internal">
        <lane id=":10131_0_0" index="0" disallow="tram rail_urban rail rail_electric ship" speed="25.00" length="12.72" shape="8388.24,20318.89 8384.38,20319.33 8381.67,20320.28 8379.27,20321.54 8376.33,20322.92"/>
    </edge>
    <edge id=":10131_1" function="internal">
        <lane id=":10131_1_0" index="0" disallow="tram rail_urban rail rail_electric ship" speed="27.78" length="12.68" shape="8388.24,20318.89 8384.49,20319.00 8381.91,20319.09 8379.34,20319.20 8375.58,20319.33"/>
        <lane id=":10131_1_1" index="1" disallow="tram rail_urban rail rail_electric ship" speed="27.78" length="12.68" shape="8388.16,20315.59 8384.39,20315.70 8381.82,20315.80 8379.24,20315.90 8375.47,20316.04"/>
    </edge>
    <edge id=":10131_3" function="internal">
        <lane id=":10131_3_0" index="0" disallow="tram rail_urban rail rail_electric ship" speed="25.00" length="11.34" shape="8388.16,20315.59 8384.79,20315.51 8382.42,20314.93 8380.39,20313.69 8378.02,20311.62"/>
    </edge>
    <edge id=":10151_0" function="internal">
        <lane id=":10151_0_0" index="0" disallow="tram rail_urban rail rail_electric ship" speed="25.00" length="0.48" shape="9016.77,20256.09 9016.74,20255.61"/>
    </edge>
    <edge id=":10151_1" function="internal">
        <lane id=":10151_1_0" index="0" disallow="tram rail_urban rail rail_electric ship" speed="27.78" length="14.89" shape="9001.87,20256.39 9006.29,20256.16 9009.31,20256.00 9012.33,20255.84 9016.74,20255.61"/>
        <lane id=":10151_1_1" index="1" disallow="tram rail_urban rail rail_electric ship" speed="27.78" length="14.89" shape="9002.04,20259.69 9006.46,20259.46 9009.48,20259.29 9012.50,20259.13 9016.91,20258.91"/>
        <lane id=":10151_1_2" index="2" disallow="tram rail_urban rail rail_electric ship" speed="27.78" length="14.89" shape="9002.21,20262.98 9006.63,20262.75 9009.64,20262.59 9012.66,20262.43 9017.07,20262.20"/>
    </edge>
    <edge id=":10153_0" function="internal">