<?xml version="1.0" encoding="UTF-8"?>

<!-- generated on 02/22/17 18:31:26 by SUMO duarouter Version 0.24.0
<?xml version="1.0" encoding="UTF-8"?>

<configuration xmlns:xsi="http://www.w3.org/2001/XMLSchema-instance" xsi:noNamespaceSchemaLocation="http://sumo.dlr.de/xsd/duarouterConfiguration.xsd">

    <input>
        <net-file value="input_net.net.xml"/>
        <trip-files value="trips.trips.xml"/>
    </input>

    <output>
        <output-file value="routes.rou.xml"/>
    </output>

</configuration>
-->

<routes xmlns:xsi="http://www.w3.org/2001/XMLSchema-instance" xsi:noNamespaceSchemaLocation="http://sumo.dlr.de/xsd/routes_file.xsd">
    <vehicle id="0" depart="0.00">
        <route edges="29165238#2 457176635 453717286 450926204 457884963 457886989 446148167 462138643 29141670#0 29141670#1 445014537#0 445014537#1 441997991#0 441997991#1 445078261#0 445078261#1 442016278 458080382 442016279#0 194344119#1 194344119#2"/>
    </vehicle>
    <vehicle id="1" depart="0.05">
        <route edges="445078261#0 445078261#1 442016278 458080382 441997994 442016280 458084591#0 439965069#0 439965069#1 441997995#1 441997995#2 441997995#3 441997995#4 441997995#5 454300889 454300882 454300885#0 454300885#1 454300885#2 454300885#3 194344108#1"/>
    </vehicle>
    <vehicle id="2" depart="0.10">
        <route edges="334124302#0 206608437 444232018#5 248407680 248407681 248407675 444418077 29141189#0 448781893#2 457886989 446148167 462138643 451041313 29118096 29165179 453717287 453717289#0 -232602658#1 232602658#1"/>
    </vehicle>
    <vehicle id="3" depart="0.15">
        <route edges="-429011441#3 -429011441#2 -429011441#1 -429011441#0 -429011420#3 -429011420#2 -429011420#1 447226543#5 429011416 447226544 456766135 429011446 448284881#0 -456766136 456766133#0 440042584 118265810#1 440037194 447215985 440146106 240381910 442013841 442014415 442013842 454843354 440055729 454300889 454300882 454300885#0 454300885#1 454300885#2 454300885#3"/>
    </vehicle>
    <vehicle id="4" depart="0.20">
        <route edges="460360345#3 460360345#4 461505918#0 461505918#1 461505918#2 460360352#0 460360352#1 460360352#2 460360352#3 460360352#4 429011415#0 441997995#5 454300889 454300892#0 454300892#1 454300892#2 445080100#0 445080100#1 445080100#2 445080100#3 445080100#4 445080100#5 440202873 439904288 445080859#0 445080859#1 446269829#0 -194334826#4 -194334826#3 -194334826#2 194334821"/>
    </vehicle>
    <vehicle id="5" depart="0.25">
        <route edges="248282332#0 29118093#0 29118093#1 29118093#2 29118093#3 29118093#4 29118093#5 248407674#0 248407674#1 444232017#1 248407682 248407684#0 248407684#1 442014419#1 440897382#0 440897382#1 440897382#2 440897383 194345865 445078265 442016277 441997997 441997995#0 441997995#1 441997995#2 441997995#3 441997995#4 429011415#1 429011415#2 429011415#3 -429011420#7 -429011441#5 429011441#5"/>
    </vehicle>
    <vehicle id="6" depart="0.30">
        <route edges="-306349392 439902329#1 306349107#0 306349107#1 429080725 429080720#1 429080721 429080724"/>
    </vehicle>
    <vehicle id="7" depart="0.35">
        <route edges="-454300885#2 454300885#2 454300885#3 194344108#1 429011428 461505919#1 451041315 439900146#0 439900146#1 439900151 34374859"/>
    </vehicle>
    <vehicle id="8" depart="0.40">
        <route edges="402932403#0 402932403#1 442084725#0 206608466#0 206608466#1 450920619#1 440897034#0 440897034#1 248407685 248407677 457886990 448781893#0 448781893#1 29141189#1 27318126#1 27318126#2 27318126#3 457885320#0 457885320#1 457885320#2 457885320#3 457885320#4 457885320#5 457885320#6 457885320#7"/>
    </vehicle>
    <vehicle id="9" depart="0.45">
        <route edges="440064002 -440064002 442016957#1 442016957#2 442016957#3 442016957#4 429011448#0 429011448#1 429011445#0 429011445#1 429011445#2 429011445#3 429011445#4 298344724 449785728 232967182#0 232967182#1 449785729 445005880 445167429#0 232967193 445046639#1 328501145 232795047 445167431 118265816 34374860 443160016"/>
    </vehicle>
    <vehicle id="10" depart="0.50">
        <route edges="456766132#2 456766132#3 460737119 440062730 443160016 440044937#0 440044937#1 439897796 439897795#0 439897795#1 439902329#0 439902329#1 306349107#0"/>
    </vehicle>
    <vehicle id="11" depart="0.55">
        <route edges="146688869 445080100#3 445080100#4 445080100#5 440202873 440897780#0 440897780#1 440897781#0 440897781#1 440897781#2 448947832 447226542#0 447226542#1 120200961 120200965 439895978#0 439895978#1 442779562 450537289 442779563 40020610"/>
    </vehicle>
    <vehicle id="12" depart="0.60">
        <route edges="232967181#0 232967181#1 232602656 449785730 443987641#0 29141657#0 29141657#1 29118096 457886988 450926204 27318126#0 27318126#1 27318126#2 27318126#3 457885320#0 457885320#1 457885320#2 457885320#3 457885320#4 457885320#5 475301476"/>
    </vehicle>
    <vehicle id="13" depart="0.65">
        <route edges="453040323 453294515 450175300 448790076#0 448790076#1 448790076#2 444018069#0 444018069#1 40016147#0 40016147#1 448280094 40020605 443160016 440044937#0 440044937#1 439897796 439897795#0 439897795#1 447226543#0 447226543#1 429080702#1 429080702#2 429080702#3 429080715"/>
    </vehicle>
    <vehicle id="14" depart="0.70">
        <route edges="27318126#0 -29141189#1 448781893#2 457886989 119029073 228124193 228124192 446148172 440881563 440897383 194345865 445078265 442016277 441997997 441997995#0 441997995#1 441997995#2 441997995#3 441997995#4 429011415#1 429011415#2 429011415#3 429011415#4 429011415#5 440041774 456766135 429011446 448284881#0 -456766136 -440042637 456766132#0 322629114 -322629114"/>
    </vehicle>
    <vehicle id="15" depart="0.75">
        <route edges="302857650#0 -302857650#0 302857653#0 302857653#1 302857653#2 302857654 80912821#0 80912821#1 80912821#2 443365164 440187416#0 440187416#1 440187416#2 447250373 34374859 445080858 462282209 461510135 439904288 445080859#0 445080859#1 446269829#0 446269829#1 440881189#0 440881189#1 312565414#0 312565414#1 440881471#0 440881471#1 441997996 445078262 445078264 440881562#0 440881562#1 446148172 334124302#0 334124302#1 334124302#2 440881629#0 440881629#1 440881629#2 440881629#3 440881629#4 440881629#5 442014417 458696110#0 -455096004#2"/>
    </vehicle>
    <vehicle id="16" depart="0.80">
        <route edges="442359395 442232081 334124305#0 334124305#1 334124305#2 442232082#0 442232082#1 440881634#1 450614678#0"/>
    </vehicle>
    <vehicle id="17" depart="0.85">
        <route edges="-146688868#3 -146688868#2 439901406#3 439901406#4 264037341 439897795#2 439897795#3 440881184#0 440881184#1 440881185#0 445080859#0 445080859#1 446269829#0 446269829#1 -440881187 -429011429#3 -429011429#2 429011430#0 429011430#1 -429011433#1 429011433#1"/>
    </vehicle>
    <vehicle id="18" depart="0.90">
        <route edges="442014419#1 440897382#0 440897382#1 440897382#2 440897383 194345865 445078265 442016277 441997997 441997995#0 441997995#1 441997995#2 441997995#3 441997995#4 429011415#1 429011415#2 429011415#3 429011415#4 429011415#5 440041774 456766135 429011446 448284881#0 -456766136 -440042637 456766132#0 322629114 429080720#3"/>
    </vehicle>
    <vehicle id="19" depart="0.95">
        <route edges="-456382186#0 456382186#0 456382186#1 442014418#1 442014419#0 442014419#1 440897382#0 440897382#1 440897382#2 440897383 194345865 445078265 442016277 441997997 441997995#0 441997995#1 441997995#2 441997995#3 441997995#4 441997995#5 454300889 454300882 454300885#0 454300885#1 454300885#2 454300885#3 194344108#1 440057977"/>
    </vehicle>
    <vehicle id="20" depart="1.00">
        <route edges="-45838052#1 -45838052#0 442016957#3 442016957#4 264409075 240381910 442013841 442014415 442013842 454843354 440055729 454300889 454300892#0 454300892#1 454300892#2 445080100#0 445080100#1 445080100#2 445080100#3 445080100#4 445080100#5 440202873 439976643"/>
    </vehicle>
    <vehicle id="21" depart="1.05">
        <route edges="248282336#4 462131779 199898039 462138647 444126143 448790076#0 448790076#1 448790076#2 444018069#0 444018069#1 40016147#0 40016147#1 40020604 118265794 445167430 118265810#0 118265810#1 440037195 449785723#0 449785723#1 429011447 449785726 429011445#0 429011445#1 322620773#0 322620773#1 -322620773#1"/>
    </vehicle>
    <vehicle id="22" depart="1.10">
        <route edges="454300885#2 -454300885#2 -454300885#1 -454300885#0 -454300882 -45838050 440881189#0 440881189#1 312565414#0 312565414#1 440881471#0 440881471#1 441997996 445078262 445078264 440881562#0 119029072 228124191 228124190 462138643 451041313 29118096 457886988 450926204 457884963 457886989 228123843 27318112#4"/>
    </vehicle>
    <vehicle id="23" depart="1.15">
        <route edges="440897780#0 440897780#1 440897781#0 440897781#1 440897781#2 448947832 447226542#0 447226542#1 120200961 120200965 439895978#0 439895978#1 442779562 450537289 439895644 443178671 440037763 40020608 440037760 442879332#0 440040594"/>
    </vehicle>
    <vehicle id="24" depart="1.20">
        <route edges="89797645 255645805#1 79182771#0 79182771#1 442232085#0 79174943 449860495"/>
    </vehicle>
    <vehicle id="25" depart="1.25">
        <route edges="442084730#0 442084730#1 442087558#2 188246611#0 188246607 194344119#2 442359395 442232081 334124305#0 334124305#1 334124305#2 440769442 450920619#0 450920619#1 440897034#0 440897034#1 248407685 248407677 457886991 448790074 199898039 462138647 444126143 448790076#0 448790076#1"/>
    </vehicle>
    <vehicle id="26" depart="1.30">
        <route edges="444422640#1 444422640#2 29118093#1 29118093#2 29118093#3 29118093#4 29118093#5 29118093#6 457886990 448781893#0 448781893#1 448781893#2 457886989 446148167 462138643 29141670#0 29141670#1 445014537#0 445014537#1 441997991#0 441997991#1 440774133 312565415#0 312565415#1 442010286 442016281 449785728 232967182#0 232967182#1 449706509"/>
    </vehicle>
    <vehicle id="27" depart="1.35">
        <route edges="-194334821 194334826#2 194334826#3 194334826#4 446269829#1 440881189#0 439963691 440881188#1 429011415#2 429011415#3 429011415#4 429011415#5 440041774 456766135 429011446 448284881#0 -456766136 456766133#0 456766133#1 118265791 443159490 443159494 443159486 232795048 232795046 448282334 40020609 444014977#0 444014977#1 443987645#0 443987645#1 -428012644"/>
    </vehicle>
    <vehicle id="28" depart="1.40">
        <route edges="440881184#0 440881184#1 440881185#0 440881185#1 440202873 440897780#0 440897780#1 440897781#0 440897781#1 440897781#2 448947832 264037341 447226543#0 447226543#1 447226543#2 447226543#3 447226543#4 447226543#5 429011416 447226544 456766135 429011446 448284881#0 -456766136 -440042637 456766132#0 456766132#1 -429080720#3"/>
    </vehicle>
    <vehicle id="29" depart="1.45">
        <route edges="444126138 450175546 -427564714#1 428012644 443987645#2 443987646 448790076#1 448790076#2 29165238#0 29165238#1 29165238#2 457176635 453717286 450926204 457884963 457886989 446148167 462138643 29141670#0 29141670#1 445014537#0 445014537#1 441997991#0 441997991#1 445078261#0 445078261#1 442016278 458080382 442016279#0 442016279#1 194345864 403907823 440769414 233810276 442141003 442232085#0 442232085#1 449862105 442232086 459592473#0"/>
    </vehicle>
    <vehicle id="30" depart="1.50">
        <route edges="448790073#1 448790073#2 29118093#5 29118093#6 457886990 448781893#0 448781893#1 448781893#2 457886989 446148167"/>
    </vehicle>
    <vehicle id="31" depart="1.55">
        <route edges="306349392 -306349392 439902329#1 439902329#2 -146688868#3 447226543#1 447226543#2 447226543#3 447226543#4 447226543#5 429011416 447226544 456766135 429011446 448284881#0 -456766136 456766133#0 456766133#1 118265791 443159490 443159494 443159486 442779564 232967184 328501144 450350861 444018070 445046647 232967181#0 232967181#1 232602656 449785730 443987641#0 29141657#0 29141657#1 29118096 457886988 450926204 457884963 457886989 446148167 462138643 29141670#0 29141817"/>
    </vehicle>
    <vehicle id="32" depart="1.60">
        <route edges="-29140969#0 -29140830#2 -29140830#1 248282336#3 248282336#4 462131778#0 462131778#1 457885321 444232017#0 444232017#1 248407682 248407684#0 248407684#1 442014419#1 440897382#0 440897382#1 440897382#2 440897383 194345865 445078265 442016277 441997997 441997995#0 441997995#1 441997995#2 441997995#3 441997995#4 441997995#5 454300889 454300892#0 454300892#1 454300892#2 445080100#0 445080100#1 445080100#2 445080100#3 445080100#4 445080100#5 440202873 439904288 439905477"/>
    </vehicle>
    <vehicle id="33" depart="1.65">
        <route edges="442016956#2 -45838052#0 442016957#3 442016957#4 429011448#0 429011448#1 429011445#0 429011445#1 429011445#2 429011445#3 429011445#4 298344724 449785728 232967182#0 232967182#1 449706509 449785730 443987641#0 29141657#0 29141657#1 29118096 457886988 450926204 27318126#0 27318126#1 27318126#2 27318126#3 457885320#0 457885320#1 457885320#2 29140830#0 29140830#1 444428461#2 444428461#3"/>
    </vehicle>
    <vehicle id="34" depart="1.70">
        <route edges="-429011429#2 429011430#0 429011430#1 429011430#2 -429011430#8 -429011430#7 429011430#7"/>
    </vehicle>
    <vehicle id="35" depart="1.75">
        <route edges="-427774912#1 427774900#0 427774900#1 444014977#1 443987645#0 443987645#1 443987645#2 443987646 448790076#1 448790076#2 29165238#0 29165238#1 29165238#2 457176635 453717286 450926204 457884963 457886989 446148167 462138643 29141670#0 29141670#1 445014537#0"/>
    </vehicle>
    <vehicle id="36" depart="1.80">
        <route edges="459587615 451042486 233810277 440769410 233810275 442359395 442232081 334124305#0 334124305#1 334124305#2 440769445 442232083 442087558#0"/>
    </vehicle>
    <vehicle id="37" depart="1.85">
        <route edges="-439965012 441997995#4 441997995#5 454300889 -45838050 440881189#0 440881189#1 312565414#0 312565414#1 440881471#0 440881471#1 441997996 445078262 445078264 440881562#0 119029072 228124191 228124190 462138643 451041313 29118096 457886988 450926204 27318126#0 -29141189#1 -29141189#0 444418078 27318112#6 27318112#7 27318112#8 27318112#9 448790072 448790073#0 448790073#1 448790073#2"/>
    </vehicle>
    <vehicle id="38" depart="1.90">
        <route edges="444119991 194344109 194344107 459587615 451042486 233810277 440769410 233810275 442084732#0 442084732#1 442084733#0 442084733#1 146688871 440881562#0 440881562#1 446148172 334124302#0 334124302#1 334124302#2"/>
    </vehicle>
    <vehicle id="39" depart="1.95">
        <route edges="322620773#4 -322620773#4 322629017#0 322629017#1 232967182#1 449706509 449785730 443987641#0 29141657#0 29141657#1 29118096 457886988 450926204 457884963 457886989"/>
    </vehicle>
    <vehicle id="40" depart="2.00">
        <route edges="446269830#0 194334826#4 446269829#1 440881189#0 440881189#1 442014416 447215987#0 447215987#1 440057978 461504894#2 459592474 444119992 459587614 459587615 440765420#0 440765420#1 374048528 79182771#1 442232085#0 79174943 449860494#0 89797645 255645805#1"/>
    </vehicle>
    <vehicle id="41" depart="2.05">
        <route edges="453033846#0 428012640 -427564710#0 453040323 453294515 444126141 450614677 233525478 462131778#0 199898412"/>
    </vehicle>
    <vehicle id="42" depart="2.10">
        <route edges="440057978 461504894#2 459592474 444119992 459587614 459587615 451042486 233810277 440769410 233810275 442084732#0 442084732#1 442084733#0 442084733#1 146688871 440881562#0 119029072 228124191 228124190 462138643 451041313 29118096 457886988 450926204 27318126#0 -29141189#1 -29141189#0 444418078 27318112#6 27318112#7 27318112#8 27318112#9"/>
    </vehicle>
    <vehicle id="43" depart="2.15">
        <route edges="-429080720#1 -429080725 -306349107#1 -306349107#0 439902329#2 -146688868#3 447226543#1 429080702#1 429080702#2 429080702#3 429080702#4 429080700#4 429080700#5"/>
    </vehicle>
    <vehicle id="44" depart="2.20">
        <route edges="-428012652 427774899#1 427774899#2 427774900#1 444014977#1 443987645#0 443987645#1 443987645#2 443987646 448790076#1 448790076#2 29165238#0 29165238#1 29165238#2 457176635 453717286 450926204 457884963 457886989 446148167 462138643 29141670#0 29141817 228123845 228123842"/>
    </vehicle>
    <vehicle id="45" depart="2.25">
        <route edges="449785730 443987641#0 443987641#1 445014537#0 445014537#1 441997991#0 441997991#1 440774133 312565415#0 312565415#1 442010286 298344725 440062732#0 440062732#1 442016957#0 442016957#1 442016957#2 442016957#3 442016957#4 429011448#0 429011448#1 429011445#0 429011445#1 322620773#0"/>
    </vehicle>
    <vehicle id="46" depart="2.30">
        <route edges="-302857648#1 -302857648#0 80912821#0 80912821#1 80912821#2 443365164 440187416#0 440187416#1 440187416#2 447250373 34374859 445080858 462282209 461510135 439904288 445080859#0 445080859#1 446269829#0 446269829#1 440881189#0 440881189#1 312565414#0 312565414#1 440881471#0 440881471#1 441997996 445078262 445078264 440881562#0 440881562#1 446148172 334124302#0 334124302#1 334124302#2 440881629#0 440881629#1 440881629#2 440881629#3 440881629#4"/>
    </vehicle>
    <vehicle id="47" depart="2.35">
        <route edges="440044937#1 439897796 439897795#0 439897795#1 439897795#2 439897795#3 440881184#0 440881184#1 440881185#0 445080859#0 445080859#1 446269829#0 446269829#1 440881189#0 440881189#1 312565414#0 312565414#1 440881471#0 440881471#1 441997996 445078262 445078264 440881562#0 440881562#1 446148172 334124302#0 334124302#1 334124302#2 440881629#0 440881629#1 248407684#1 248407684#2 442014420#0 442014420#1 456541503 440881634#0 442232082#2"/>
    </vehicle>
    <vehicle id="48" depart="2.40">
        <route edges="460360345#2 460360345#3 460360345#4 461505918#0 461505918#1 461505918#2 194344108#3 461504894#0 461504894#1 461504894#2 459592474 444119992 459587614 459587615 451042486 233810277 440769410 233810275 442359395 442232081 334124305#0 334124305#1 334124305#2 440769442 450920619#0 450920619#1 440897034#0 440881629#1 440881629#2 440881629#3 440881629#4 -248407683 248407683"/>
    </vehicle>
    <vehicle id="49" depart="2.45">
        <route edges="-89797642 -454300885#2 89797649 460360352#3 460360352#4 429011415#0 429011415#1 429011415#2 429011415#3 429011415#4 429011415#5 440041774 456766135 429011446 448284881#0 -456766136 456766133#0 456766133#1 118265791 443159490 443159494 443159486 442779564 232967184 328501144 445178978 415259672#0 199896076 421238582 421238583 199896074#2"/>
    </vehicle>
    <vehicle id="50" depart="2.50">
        <route edges="334124302#1 334124302#2 440881629#0 440881629#1 248407684#1 248407684#2 442014420#0 442014420#1 456541503 440881634#0 440881634#1 450614679 440897028#0 440897028#1 442232083 442087558#0 442087558#1 442087558#2 444351851 233810278 440769414 233810276 442141003 442232085#0 442232085#1 449862105 440765421 442232087 194344117 194344127 451041315 442232088"/>
    </vehicle>
    <vehicle id="51" depart="2.55">
        <route edges="194339709#0 194339709#1 -429080700#0 -446269827#3 -446269827#2 -446269827#1 -446269827#0 -446269825 446269829#0 446269829#1 440881189#0 440881189#1 312565414#0 312565414#1 440881471#0 440881471#1 441997996 445078262 445078264 440881562#0 440881562#1 446148172 440881563 402932403#0 402932403#1 442084726"/>
    </vehicle>
    <vehicle id="52" depart="2.60">
        <route edges="440187410 34374859 445080858 462282209 461510135 439904288 445080859#0 445080859#1 446269829#0 446269829#1 440881189#0 440881189#1 312565414#0 312565414#1 440881471#0 440881471#1 441997996 445078262 445078264 440881562#0 440881562#1 446148172 334124302#0 334124302#1 334124302#2 440881629#0 440897034#1 248407685"/>
    </vehicle>
    <vehicle id="53" depart="2.65">
        <route edges="439963186 440881186#0 440881186#1 -439963244 445080859#1 446269829#0 446269829#1 440881189#0 440881189#1 312565414#0 312565414#1 440881471#0 440881471#1 441997996 445078262 445078264 440881562#0 119029072 228124191 228124190 462138643 451041313 29118096 457886988 450926204 457884963"/>
    </vehicle>
    <vehicle id="54" depart="2.70">
        <route edges="445078264 440881562#0 119029072 228124191 228124190 462138643 29141670#0 29141670#1 445014537#0"/>
    </vehicle>
    <vehicle id="55" depart="2.75">
        <route edges="445078263 445078265 442016277 441997997 441997995#0 441997995#1 441997995#2 441997995#3 441997995#4 441997995#5 454300889 454300892#0 454300892#1 454300892#2 445080100#0 445080100#1 445080100#2 445080100#3 445080100#4 445080100#5 440202873 440897780#0 440897780#1"/>
    </vehicle>
    <vehicle id="56" depart="2.80">
        <route edges="442232090#2 302857649#0 302857649#1 302857652 302857653#0 302857653#1 302857653#2 302857654 80912821#0 80912821#1 80912821#2 443365164 440187416#0 440187416#1 440187416#2 447250373 34374859 445080858 462282209 461510135 439904288 445080859#0 445080859#1 446269829#0 446269829#1 440881189#0 440881189#1 312565414#0 312565414#1 440881471#0 439965068 440881470#1 312565415#0 312565415#1 442010286 440046811 224934251#0"/>
    </vehicle>
    <vehicle id="57" depart="2.85">
        <route edges="233337679 444014976 444014977#0 444014977#1 443987645#0 443987645#1 443987645#2 450175545 444126139 444126141 450614677 233525478 462131778#0 462131778#1 457885321 444126144#0 444126144#1 299795207 444149841 444149842 27318117 444149844 440771222 440881632#0"/>
    </vehicle>
    <vehicle id="58" depart="2.90">
        <route edges="-302857658#0 -302857657#0 -302857656#0 79173488#5 79173488#6 79173488#7 79173488#8 79173488#9 79173488#10 302857654 80912821#0 80912821#1 80912821#2 443365164 440187416#0 440187416#1 440187416#2 447250373 34374859 445080858 462282209 461510135 439904288 445080859#0 445080859#1 446269829#0 446269829#1 440881189#0 440881189#1 312565414#0 312565414#1 440881471#0 440881471#1 441997996 445078262 445078264 440881562#0 119029072 228124191 228124190 462138643 451041313 29118096 457886988 450926204 27318126#0 27318126#1 27318126#2 27318126#3 457885320#0 457885320#1 457885320#2 457885320#3 457885320#4 457885320#5 457885320#6 457885320#7"/>
    </vehicle>
    <vehicle id="59" depart="2.95">
        <route edges="439963395 -439963395 445080100#4 445080100#5 440202873 439904288 445080859#0 445080859#1 446269829#0 446269829#1 440881189#0 440881189#1 312565414#0 -45838052#6 -45838052#5 -45838052#4 -45838052#3 -45838052#2 -45838052#1 -45838052#0 442016957#3 442016957#4 429011448#0 429011448#1 429011445#0 429011445#1 429011445#2 429011445#3 429011445#4 312565418"/>
    </vehicle>
    <vehicle id="60" depart="3.00">
        <route edges="440769440 440897028#1 442232083 442087558#0 442087558#1 442087558#2 188246611#0 188246607 194344119#2 442084732#0 442084732#1 442084733#0 442084733#1 146688871 440881562#0 119029072 228124191 228124190 462138643 451041313 29118096 457886988 450926204 27318126#0 -29141189#1 -29141189#0 444418078 -444418078"/>
    </vehicle>
    <vehicle id="61" depart="3.05">
        <route edges="460360352#3 460360352#4 429011415#0 441997995#5 454300889 -45838050 440881189#0 440881189#1 312565414#0 312565414#1 440881471#0 440881471#1 441997996 445078262 445078264 440881562#0 440881562#1 446148172 334124302#0 334124302#1 334124302#2 440881629#0 440881629#1 440881629#2 440881629#3 440881629#4 440881629#5 442014417 458696110#0 -455096004#2 -455096004#1 -455096004#0 455105562#0"/>
    </vehicle>
    <vehicle id="62" depart="3.10">
        <route edges="439965012 -439965012 441997995#4 429011415#1 429011415#2 429011415#3 429011415#4 429011415#5 440041774 456766135 429011446 448284881#0 -456766136 456766133#0 456766133#1 118265791 118265816 34374860 443160016 440044937#0 439895973 439895978#1 442779562 450537289 442779563 40020610"/>
    </vehicle>
    <vehicle id="63" depart="3.15">
        <route edges="429011436#3 429011429#1 429011429#2 429011429#3 440881187 440881189#0 440881189#1 312565414#0 312565414#1 440881471#0 440881471#1 441997996 445078262 445078264 440881562#0 440881562#1 446148172 334124302#0 334124302#1 334124302#2 440881629#0 440881629#1 440881629#2 440881629#3 440881629#4 -248407683 247429032#0"/>
    </vehicle>
    <vehicle id="64" depart="3.20">
        <route edges="248407675 444418077 29141189#0 448781893#2 457886989 446148167"/>
    </vehicle>
    <vehicle id="65" depart="3.25">
        <route edges="-429011420#1 447226543#5 429011416 447226544 456766135 429011446 448284881#0 -456766136 456766133#0 456766133#1 118265791 443159490 443159494 443159486 442779564 232967184 328501144 445178978 415259672#0 199896076 421238582 421238583 199896074#2 -199896074#2"/>
    </vehicle>
    <vehicle id="66" depart="3.30">
        <route edges="446148172 440881563 440897383 146688871 440881562#0 119029072 228124191 228124190 462138643 451041313 29118096 29165179 453717287 453717288 462138644#0 462138644#1 462138644#2 457886987 445014534 232796360#0 232796360#1 224732387 445167429#0 445167429#1 450350861 444018070 445046647 232967181#0"/>
    </vehicle>
    <vehicle id="67" depart="3.35">
        <route edges="455096004#2 458696110#1 458696110#2 458696117 458696120#0 440769419 194344114#1 440897026#0 440897026#1 440897026#2 450614679 440897030#0 440897030#1 456541502 450920619#0 450920619#1 440897034#0 440897034#1 248407685 248407677 457886991 448790074 199898039 462138647 444126143 448790076#0 448790076#1 448790076#2 444018069#0 444018069#1 40016147#0 40016147#1 448280094 40020605 443160016 448949162 24617126"/>
    </vehicle>
    <vehicle id="68" depart="3.40">
        <route edges="-429080700#4 -429080702#4 -429080702#3 -429080702#2 -429080702#1 447226543#2 447226543#3 447226543#4 447226543#5 429011416 447226544 456766135 429011446 448284881#0 -456766136 456766133#0 456766133#1 118265791 443159490 443159494 443159486 442779564 232967184 328501144 450350861 444018070 445046647 232967181#0 232967181#1 232602656 449785730 443987641#0 29141657#0 29141657#1 29118096 29165179 453717287 453717288 462138645#0 462138645#1 199898038#2 444433525#2"/>
    </vehicle>
    <vehicle id="69" depart="3.45">
        <route edges="454300885#2 -454300885#2 -454300885#1 -454300885#0 -454300882 -45838050 440881189#0 440881189#1 312565414#0 312565414#1 440881471#0 440881471#1 441997996 445078262 445078264 440881562#0 119029072 228124191 228124190 462138643 451041313 29118096 457886988 450926204 27318126#0 27318126#1 27318126#2 27318126#3 457885320#0 457885320#1 457885320#2"/>
    </vehicle>
    <vehicle id="70" depart="3.50">
        <route edges="429080702#3 -429080702#3 -429080702#2 -429080702#1 447226543#2 447226543#3 447226543#4 447226543#5 429011416 447226544 456766135 429011446 448284881#0 -456766136 456766133#0 456766133#1 118265791 443159490 443159494 443159486 232795048 232795046 448282334 40020609 444014977#0 444014977#1 443987645#0 443987645#1 443987645#2 450175545 444126139 444126141 450614677 233525478 462131778#0 199898412"/>
    </vehicle>
    <vehicle id="71" depart="3.55">
        <route edges="445078264 440881562#0 440881562#1 446148172 440881563 440897383 194345865 445078265 442016277 441997997 441997995#0 441997995#1 441997995#2 89797643 444118071#0"/>
    </vehicle>
    <vehicle id="72" depart="3.60">
        <route edges="444232018#8 441997991#1 440774131 445078262 445078263 445078265 442016277 441997997 441997995#0 441997995#1 441997995#2 441997995#3 441997995#4 441997995#5 454300889 454300892#0"/>
    </vehicle>
    <vehicle id="73" depart="3.65">
        <route edges="439900140 319804288 442359393#0 442359393#1 444119991 194344109 194344107 459587615 451042486 233810277 440769410 233810275 442084732#0 442084732#1 442084733#0 442084733#1 146688871 440881562#0 440881562#1 446148172 440881563 440897383"/>
    </vehicle>
    <vehicle id="74" depart="3.70">
        <route edges="-29140969#2 -29140969#1 -29140969#0 -29140830#2 -29140830#1 248282336#3 248282336#4 462131778#0 462131778#1 457885321 444232017#0 444232017#1 248407682 248407684#0 248407684#1 442014419#1 440897382#0 440897382#1 440897382#2 440897383 194345865 445078265 442016277 441997997 441997995#0 441997995#1 441997995#2 441997995#3 439965012 444118071#1 444111349 447215987#0 447215987#1 447215987#2 447215987#3 447215987#4 447215987#5 447215987#6 447215987#7 79174951"/>
    </vehicle>
    <vehicle id="75" depart="3.75">
        <route edges="232967182#1 449706509 449785730 443987641#0 29141657#0 29141657#1 29118096 29165179 453717287 453717289#0 -232602658#1 248282334#2"/>
    </vehicle>
    <vehicle id="76" depart="3.80">
        <route edges="79174943 449860494#0 89797645 255645805#1 444400943 194344119#0 194344119#1 194344119#2 442359395 442232081 334124305#0 334124305#1 334124305#2 440769442 450920619#0 450920619#1 440897034#0 440897034#1 248407685 248407677 457886991 448790074 199898039 462138647 448790075 450920620 453294516#0 453294516#1 453294516#2 444014979#0 444014979#1"/>
    </vehicle>
    <vehicle id="77" depart="3.85">
        <route edges="462332987 462332989 461504894#0 461504894#1 461504894#2 459592474 444119992 459587614 459587615 451042486 233810277 440769410 233810275 442359395 442232081 334124305#0 334124305#1 334124305#2 440769442 450920619#0 450920619#1 440897034#0 440897034#1 248407685 248407677 457886991 448790074 199898039 462138647 444126143 448790076#0 448790076#1 448790076#2 444018069#0 444018069#1 40016147#0 40016147#1 448280094"/>
    </vehicle>
    <vehicle id="78" depart="3.90">
        <route edges="80912821#0 80912821#1 80912821#2 443365164 440187416#0 440187416#1 440187416#2 447250373 34374859 445080858 462282209 461510135 440897780#0 440897780#1 440897781#0 440897781#1 440897781#2 448947832 264037341 439902329#0 306349392"/>
    </vehicle>
    <vehicle id="79" depart="3.95">