<?xml version="1.0"?>
<trips>
    <trip id="0" depart="0.0" from="29165238#2" to="194344119#2" />
    <trip id="1" depart="0.05" from="445078261#0" to="194344108#1" />
    <trip id="2" depart="0.1" from="334124302#0" to="232602658#1" />
    <trip id="3" depart="0.15" from="-429011441#3" to="454300885#3" />
    <trip id="4" depart="0.2" from="460360345#3" to="194334821" />
    <trip id="5" depart="0.25" from="248282332#0" to="429011441#5" />
    <trip id="6" depart="0.3" from="-306349392" to="429080724" />
    <trip id="7" depart="0.35" from="-454300885#2" to="34374859" />
    <trip id="8" depart="0.4" from="402932403#0" to="457885320#7" />
    <trip id="9" depart="0.45" from="440064002" to="443160016" />
    <trip id="10" depart="0.5" from="456766132#2" to="306349107#0" />
    <trip id="11" depart="0.55" from="146688869" to="40020610" />
    <trip id="12" depart="0.6" from="232967181#0" to="475301476" />
    <trip id="13" depart="0.65" from="453040323" to="429080715" />
    <trip id="14" depart="0.7" from="27318126#0" to="-322629114" />
    <trip id="15" depart="0.75" from="302857650#0" to="-455096004#2" />
    <trip id="16" depart="0.8" from="442359395" to="450614678#0" />
    <trip id="17" depart="0.85" from="-146688868#3" to="429011433#1" />
    <trip id="18" depart="0.9" from="442014419#1" to="429080720#3" />
    <trip id="19" depart="0.95" from="-456382186#0" to="440057977" />
    <trip id="20" depart="1.0" from="-45838052#1" to="439976643" />
    <trip id="21" depart="1.05" from="248282336#4" to="-322620773#1" />
    <trip id="22" depart="1.1" from="454300885#2" to="27318112#4" />
    <trip id="23" depart="1.15" from="440897780#0" to="440040594" />
    <trip id="24" depart="1.2" from="89797645" to="449860495" />
    <trip id="25" depart="1.25" from="442084730#0" to="448790076#1" />
    <trip id="26" depart="1.3" from="444422640#1" to="449706509" />
    <trip id="27" depart="1.35" from="-194334821" to="-428012644" />
    <trip id="28" depart="1.4" from="440881184#0" to="-429080720#3" />
    <trip id="29" depart="1.45" from="444126138" to="459592473#0" />
    <trip id="30" depart="1.5" from="448790073#1" to="446148167" />
    <trip id="31" depart="1.55" from="306349392" to="29141817" />
    <trip id="32" depart="1.6" from="-29140969#0" to="439905477" />
    <trip id="33" depart="1.65" from="442016956#2" to="444428461#3" />
    <trip id="34" depart="1.7" from="-429011429#2" to="429011430#7" />
    <trip id="35" depart="1.75" from="-427774912#1" to="445014537#0" />
    <trip id="36" depart="1.8" from="459587615" to="442087558#0" />
    <trip id="37" depart="1.85" from="-439965012" to="448790073#2" />
    <trip id="38" depart="1.9" from="444119991" to="334124302#2" />
    <trip id="39" depart="1.95" from="322620773#4" to="457886989" />
    <trip id="40" depart="2.0" from="446269830#0" to="255645805#1" />
    <trip id="41" depart="2.05" from="453033846#0" to="199898412" />
    <trip id="42" depart="2.1" from="440057978" to="27318112#9" />
    <trip id="43" depart="2.15" from="-429080720#1" to="429080700#5" />
    <trip id="44" depart="2.2" from="-428012652" to="228123842" />
    <trip id="45" depart="2.25" from="449785730" to="322620773#0" />
    <trip id="46" depart="2.3" from="-302857648#1" to="440881629#4" />
    <trip id="47" depart="2.35" from="440044937#1" to="442232082#2" />
    <trip id="48" depart="2.4" from="460360345#2" to="248407683" />
    <trip id="49" depart="2.45" from="-89797642" to="199896074#2" />
    <trip id="50" depart="2.5" from="334124302#1" to="442232088" />
    <trip id="51" depart="2.55" from="194339709#0" to="442084726" />
    <trip id="52" depart="2.6" from="440187410" to="248407685" />
    <trip id="53" depart="2.65" from="439963186" to="457884963" />
    <trip id="54" depart="2.7" from="445078264" to="445014537#0" />
    <trip id="55" depart="2.75" from="445078263" to="440897780#1" />
    <trip id="56" depart="2.8" from="442232090#2" to="224934251#0" />
    <trip id="57" depart="2.85" from="233337679" to="440881632#0" />
    <trip id="58" depart="2.9" from="-302857658#0" to="457885320#7" />
    <trip id="59" depart="2.95" from="439963395" to="312565418" />
    <trip id="60" depart="3.0" from="440769440" to="-444418078" />
    <trip id="61" depart="3.05" from="460360352#3" to="455105562#0" />
    <trip id="62" depart="3.1" from="439965012" to="40020610" />
    <trip id="63" depart="3.15" from="429011436#3" to="247429032#0" />
    <trip id="64" depart="3.2" from="248407675" to="446148167" />
    <trip id="65" depart="3.25" from="-429011420#1" to="-199896074#2" />
    <trip id="66" depart="3.3" from="446148172" to="232967181#0" />
    <trip id="67" depart="3.35" from="455096004#2" to="24617126" />
    <trip id="68" depart="3.4" from="-429080700#4" to="444433525#2" />
    <trip id="69" depart="3.45" from="454300885#2" to="457885320#2" />
    <trip id="70" depart="3.5" from="429080702#3" to="199898412" />
    <trip id="71" depart="3.55" from="445078264" to="444118071#0" />
    <trip id="72" depart="3.6" from="444232018#8" to="454300892#0" />
    <trip id="73" depart="3.65" from="439900140" to="440897383" />
    <trip id="74" depart="3.7" from="-29140969#2" to="79174951" />
    <trip id="75" depart="3.75" from="232967182#1" to="248282334#2" />
    <trip id="76" depart="3.8" from="79174943" to="444014979#1" />
    <trip id="77" depart="3.85" from="462332987" to="448280094" />
    <trip id="78" depart="3.9" from="80912821#0" to="306349392" />
    <trip id="79" depart="3.95" from="428729409#1" to="451041314#1" />
    <trip id="80" depart="4.0" from="303719967#0" to="248407680" />
    <trip id="81" depart="4.05" from="302857657#0" to="199896075#2" />
    <trip id="82" depart="4.1" from="40016147#1" to="440881636#0" />
    <trip id="83" depart="4.15" from="224732386" to="-322629017#1" />
    <trip id="84" depart="4.2" from="448280093" to="462131779" />
    <trip id="85" depart="4.25" from="447226542#0" to="444428461#2" />
    <trip id="86" depart="4.3" from="322620773#0" to="449785727#4" />
    <trip id="87" depart="4.35" from="447215987#2" to="450920618" />
    <trip id="88" depart="4.4" from="-146688868#3" to="445014536#2" />
    <trip id="89" depart="4.45" from="442141003" to="451041313" />
    <trip id="90" depart="4.5" from="440044936#3" to="322620773#1" />
    <trip id="91" depart="4.55" from="-29141189#1" to="475301476" />
    <trip id="92" depart="4.6" from="-453033846#2" to="-302857650#0" />
    <trip id="93" depart="4.65" from="29141670#1" to="439963691" />
    <trip id="94" depart="4.7" from="440881186#0" to="302857653#2" />
    <trip id="95" depart="4.75" from="442232085#0" to="443987641#1" />
    <trip id="96" depart="4.8" from="462138645#2" to="444126146" />
    <trip id="97" depart="4.85" from="445178978" to="89797648#1" />
    <trip id="98" depart="4.9" from="442084733#1" to="-45838052#4" />
    <trip id="99" depart="4.95" from="302857662#1" to="-29141817" />
    <trip id="100" depart="5.0" from="27318126#2" to="188248177" />
    <trip id="101" depart="5.05" from="-439900145" to="429011445#1" />
    <trip id="102" depart="5.1" from="444428461#1" to="457884963" />
    <trip id="103" depart="5.15" from="-429011430#6" to="118265810#1" />
    <trip id="104" depart="5.2" from="-100858016" to="444428464" />
    <trip id="105" depart="5.25" from="443160016" to="440771240" />
    <trip id="106" depart="5.3" from="429011445#2" to="224952403" />
    <trip id="107" depart="5.35" from="302857650#0" to="29165238#1" />
    <trip id="108" depart="5.4" from="444014975#1" to="-429080702#4" />
    <trip id="109" depart="5.45" from="-303475997" to="-429011430#0" />
    <trip id="110" depart="5.5" from="442084725#0" to="232602663#1" />
    <trip id="111" depart="5.55" from="440769442" to="442084727#1" />
    <trip id="112" depart="5.6" from="-306349107#1" to="440774131" />
    <trip id="113" depart="5.65" from="444126144#1" to="439976643" />
    <trip id="114" depart="5.7" from="40016195" to="-429011441#2" />
    <trip id="115" depart="5.75" from="-428012644" to="-322620774#0" />
    <trip id="116" depart="5.8" from="34323862#0" to="248283748" />
    <trip id="117" depart="5.85" from="-80912580" to="-449860494#1" />
    <trip id="118" depart="5.9" from="320159746" to="440041773#0" />
    <trip id="119" depart="5.95" from="-303475998#3" to="454300882" />
    <trip id="120" depart="6.0" from="440881629#4" to="27318126#2" />
    <trip id="121" depart="6.05" from="429011429#3" to="-429011429#1" />
    <trip id="122" depart="6.1" from="248407684#2" to="184740438#1" />
    <trip id="123" depart="6.15" from="429080720#3" to="455105562#0" />
    <trip id="124" depart="6.2" from="-444111347#1" to="440881184#0" />
    <trip id="125" depart="6.25" from="458696110#0" to="457885320#3" />
    <trip id="126" depart="6.3" from="-429011430#6" to="429011430#2" />
    <trip id="127" depart="6.35" from="440881469#0" to="456382186#0" />
    <trip id="128" depart="6.4" from="462282209" to="248283748" />
    <trip id="129" depart="6.45" from="429011436#1" to="440881186#0" />
    <trip id="130" depart="6.5" from="-429011436#1" to="439900145" />
    <trip id="131" depart="6.55" from="-184739533#2" to="442779564" />
    <trip id="132" depart="6.6" from="206608466#0" to="448790076#2" />
    <trip id="133" depart="6.65" from="-429011430#8" to="456766132#1" />
    <trip id="134" depart="6.7" from="-444418076#1" to="461505918#2" />
    <trip id="135" depart="6.75" from="-429011436#0" to="206608466#0" />
    <trip id="136" depart="6.8" from="-232602658#1" to="232796360#1" />
    <trip id="137" depart="6.85" from="461504894#2" to="445080099#3" />
    <trip id="138" depart="6.9" from="-428012652" to="444400943" />
    <trip id="139" depart="6.95" from="-427774900#1" to="440881188#1" />
    <trip id="140" depart="7.0" from="-302857651" to="440881469#2" />
    <trip id="141" depart="7.05" from="-184739533#0" to="29140969#1" />
    <trip id="142" depart="7.1" from="-297891659#1" to="-194339709#0" />
    <trip id="143" depart="7.15" from="440044936#3" to="415259672#0" />
    <trip id="144" depart="7.2" from="429011420#3" to="248407674#1" />
    <trip id="145" depart="7.25" from="439905477" to="440881188#0" />
    <trip id="146" depart="7.3" from="233932480" to="449070494" />
    <trip id="147" depart="7.35" from="442016957#4" to="429011430#3" />
    <trip id="148" depart="7.4" from="-322629006#0" to="-29140969#1" />
    <trip id="149" depart="7.45" from="-146688870#0" to="440044936#2" />
    <trip id="150" depart="7.5" from="184827120#1" to="-359990752#1" />
    <trip id="151" depart="7.55" from="199898038#2" to="460360350" />
    <trip id="152" depart="7.6" from="443346645" to="444351850#1" />
    <trip id="153" depart="7.65" from="428729409#0" to="427774912#1" />
    <trip id="154" depart="7.7" from="451041315" to="439897795#2" />
    <trip id="155" depart="7.75" from="79173488#4" to="194339716" />
    <trip id="156" depart="7.8" from="-199896076" to="440041773#0" />
    <trip id="157" depart="7.85" from="448280093" to="248282332#1" />
    <trip id="158" depart="7.9" from="453033846#1" to="439965069#1" />
    <trip id="159" depart="7.95" from="450920618" to="-89797649" />
    <trip id="160" depart="8.0" from="-199896074#2" to="447215987#3" />
    <trip id="161" depart="8.05" from="429011441#5" to="446269830#0" />
    <trip id="162" depart="8.1" from="-322620775#1" to="429011423" />
    <trip id="163" depart="8.15" from="428012641" to="440044936#4" />
    <trip id="164" depart="8.2" from="450920618" to="443987640" />
    <trip id="165" depart="8.25" from="-184739533#0" to="449785727#2" />
    <trip id="166" depart="8.3" from="449785729" to="444433525#1" />
    <trip id="167" depart="8.35" from="-429011436#3" to="457884963" />
    <trip id="168" depart="8.4" from="-429011432" to="440771230#1" />
    <trip id="169" depart="8.45" from="29141057#0" to="429011436#1" />
    <trip id="170" depart="8.5" from="458084591#1" to="444351850#0" />
    <trip id="171" depart="8.55" from="440062732#0" to="440881189#1" />
    <trip id="172" depart="8.6" from="458084591#2" to="440881186#0" />
    <trip id="173" depart="8.65" from="29141094" to="194334820#1" />
    <trip id="174" depart="8.7" from="-444118070" to="188246611#0" />
    <trip id="175" depart="8.75" from="448790076#0" to="429080702#4" />
    <trip id="176" depart="8.8" from="440062730" to="188246609" />
    <trip id="177" depart="8.85" from="457885320#3" to="444126139" />
    <trip id="178" depart="8.9" from="-45838052#0" to="442084725#2" />
    <trip id="179" depart="8.95" from="-194443815" to="-232602658#1" />
    <trip id="180" depart="9.0" from="430038917#0" to="440044936#4" />
    <trip id="181" depart="9.05" from="-429011429#0" to="442016956#0" />
    <trip id="182" depart="9.1" from="442232082#2" to="449785727#4" />
    <trip id="183" depart="9.15" from="-194339716" to="443987645#2" />
    <trip id="184" depart="9.2" from="303287747" to="403907823" />
    <trip id="185" depart="9.25" from="232602810" to="447215987#4" />
    <trip id="186" depart="9.3" from="-89797645" to="-429080700#5" />
    <trip id="187" depart="9.35" from="429011420#3" to="-199896074#0" />
    <trip id="188" depart="9.4" from="-429011430#1" to="440897023#1" />
    <trip id="189" depart="9.45" from="440771233" to="120200965" />
    <trip id="190" depart="9.5" from="29142233" to="440041774" />
    <trip id="191" depart="9.55" from="-303040913" to="428729409#2" />
    <trip id="192" depart="9.6" from="29141817" to="445080099#4" />
    <trip id="193" depart="9.65" from="454300882" to="415259672#0" />
    <trip id="194" depart="9.7" from="443987646" to="428729409#2" />
    <trip id="195" depart="9.75" from="440881470#1" to="-429011420#2" />
    <trip id="196" depart="9.8" from="440881186#1" to="233809684" />
    <trip id="197" depart="9.85" from="440897781#1" to="-428729409#0" />
    <trip id="198" depart="9.9" from="442014419#0" to="441997995#5" />
    <trip id="199" depart="9.95" from="-428729410" to="451041313" />
    <trip id="200" depart="10.0" from="440057978" to="-297891659#0" />
    <trip id="201" depart="10.05" from="445080099#1" to="462131779" />
    <trip id="202" depart="10.1" from="322620775#1" to="-29141057#0" />
    <trip id="203" depart="10.15" from="440769414" to="429011420#0" />
    <trip id="204" depart="10.2" from="429011430#8" to="442779565" />
    <trip id="205" depart="10.25" from="439963478" to="194334826#0" />
    <trip id="206" depart="10.3" from="461504894#1" to="-322620773#0" />
    <trip id="207" depart="10.35" from="444422644" to="429011420#2" />
    <trip id="208" depart="10.4" from="445078260" to="440769433" />
    <trip id="209" depart="10.45" from="-406977632#1" to="440881471#0" />
    <trip id="210" depart="10.5" from="-427564710#2" to="456766132#2" />
    <trip id="211" depart="10.55" from="442016957#3" to="27318112#0" />
    <trip id="212" depart="10.6" from="427774913#0" to="440881630" />
    <trip id="213" depart="10.65" from="428729409#1" to="443159486" />
    <trip id="214" depart="10.7" from="-455105562#1" to="444232017#1" />
    <trip id="215" depart="10.75" from="232602658#0" to="448790072" />
    <trip id="216" depart="10.8" from="-427564710#1" to="248283748" />
    <trip id="217" depart="10.85" from="461165663" to="458084591#2" />
    <trip id="218" depart="10.9" from="248282336#2" to="184739533#0" />
    <trip id="219" depart="10.95" from="-322629114" to="232602811" />
    <trip id="220" depart="11.0" from="443987645#2" to="199896076" />
    <trip id="221" depart="11.05" from="444418077" to="457885320#0" />
    <trip id="222" depart="11.1" from="444111348" to="228123843" />
    <trip id="223" depart="11.15" from="440037194" to="439902328#3" />
    <trip id="224" depart="11.2" from="303719967#0" to="-428012633" />
    <trip id="225" depart="11.25" from="460360353" to="444351851" />
    <trip id="226" depart="11.3" from="248407675" to="233932486" />
    <trip id="227" depart="11.35" from="440774132" to="440881636#2" />
    <trip id="228" depart="11.4" from="460360345#0" to="449860492" />
    <trip id="229" depart="11.45" from="440044936#2" to="-29141189#1" />
    <trip id="230" depart="11.5" from="442359393#1" to="445080100#2" />
    <trip id="231" depart="11.55" from="440881186#1" to="444014979#1" />
    <trip id="232" depart="11.6" from="45838052#5" to="442010287" />
    <trip id="233" depart="11.65" from="146688868#0" to="29141657#1" />
    <trip id="234" depart="11.7" from="194334820#0" to="118265807" />
    <trip id="235" depart="11.75" from="-440881187" to="440044936#3" />
    <trip id="236" depart="11.8" from="-303719973" to="444014979#0" />
    <trip id="237" depart="11.85" from="442879329#0" to="444119992" />
    <trip id="238" depart="11.9" from="429011415#0" to="80912591#0" />
    <trip id="239" depart="11.95" from="457885320#1" to="439905479#0" />
    <trip id="240" depart="12.0" from="440769437" to="442016279#1" />
    <trip id="241" depart="12.05" from="402932403#0" to="-322620774#1" />
    <trip id="242" depart="12.1" from="429011415#0" to="442087558#2" />
    <trip id="243" depart="12.15" from="-146688868#0" to="440769430" />
    <trip id="244" depart="12.2" from="-429011429#2" to="-427564710#2" />
    <trip id="245" depart="12.25" from="444126139" to="232967187" />
    <trip id="246" depart="12.3" from="34323862#0" to="444126149" />
    <trip id="247" depart="12.35" from="-427774912#0" to="199896075#1" />
    <trip id="248" depart="12.4" from="445078261#0" to="445014536#1" />
    <trip id="249" depart="12.45" from="447226543#5" to="444119991" />
    <trip id="250" depart="12.5" from="-232602663#1" to="-427774913#0" />
    <trip id="251" depart="12.55" from="102596672" to="27318112#5" />
    <trip id="252" depart="12.6" from="440057977" to="429011430#4" />
    <trip id="253" depart="12.65" from="224732386" to="440881470#1" />
    <trip id="254" depart="12.7" from="439963560" to="184827126" />
    <trip id="255" depart="12.75" from="439976707" to="45838048#0" />
    <trip id="256" depart="12.8" from="248283749" to="448786343" />
    <trip id="257" depart="12.85" from="440769414" to="29141189#2" />
    <trip id="258" depart="12.9" from="427774899#0" to="429011428" />
    <trip id="259" depart="12.95" from="194345864" to="453297326" />
    <trip id="260" depart="13.0" from="429011420#2" to="444014979#0" />
    <trip id="261" depart="13.05" from="449880708#2" to="-429080720#3" />
    <trip id="262" depart="13.1" from="444418079" to="-453033846#1" />
    <trip id="263" depart="13.15" from="429011429#0" to="-232602658#0" />
    <trip id="264" depart="13.2" from="-429011422#1" to="448947832" />
    <trip id="265" depart="13.25" from="440057976" to="322620775#1" />
    <trip id="266" depart="13.3" from="445014536#0" to="439900151" />
    <trip id="267" depart="13.35" from="440881629#3" to="440769417" />
    <trip id="268" depart="13.4" from="440187410" to="194344105" />
    <trip id="269" depart="13.45" from="429080690" to="29118093#0" />
    <trip id="270" depart="13.5" from="322620773#1" to="445080100#4" />
    <trip id="271" depart="13.55" from="458714677" to="-322620773#0" />
    <trip id="272" depart="13.6" from="89797646" to="29141057#1" />
    <trip id="273" depart="13.65" from="79182771#0" to="247429032#0" />
    <trip id="274" depart="13.7" from="449785725" to="-427564710#1" />
    <trip id="275" depart="13.75" from="440881629#1" to="444014976" />
    <trip id="276" depart="13.8" from="-322629017#0" to="248407681" />
    <trip id="277" depart="13.85" from="-302857656#2" to="247429032#0" />
    <trip id="278" depart="13.9" from="439900150" to="444418081" />
    <trip id="279" depart="13.95" from="45838052#0" to="-427774913#0" />
    <trip id="280" depart="14.0" from="457885320#2" to="446269827#3" />
    <trip id="281" depart="14.05" from="439895978#1" to="427564714#0" />
    <trip id="282" depart="14.1" from="-429080700#4" to="240381910" />
    <trip id="283" depart="14.15" from="248407680" to="199896074#1" />
    <trip id="284" depart="14.2" from="415259688" to="457176636" />
    <trip id="285" depart="14.25" from="429080700#7" to="303719967#1" />
    <trip id="286" depart="14.3" from="232967182#0" to="-429080700#0" />
    <trip id="287" depart="14.35" from="445014534" to="442232088" />
    <trip id="288" depart="14.4" from="312565414#1" to="458084591#0" />
    <trip id="289" depart="14.45" from="233525478" to="-428012641" />
    <trip id="290" depart="14.5" from="334124302#1" to="446269825" />
    <trip id="291" depart="14.55" from="194344114#0" to="454300896" />
    <trip id="292" depart="14.6" from="322629006#1" to="458084591#1" />
    <trip id="293" depart="14.65" from="429011420#0" to="-429011420#7" />
    <trip id="294" depart="14.7" from="458696120#0" to="322620773#4" />
    <trip id="295" depart="14.75" from="194344109" to="440881469#0" />
    <trip id="296" depart="14.8" from="458699294#0" to="440044936#0" />
    <trip id="297" depart="14.85" from="-322620773#0" to="-184739533#1" />
    <trip id="298" depart="14.9" from="188246593" to="-429011420#6" />
    <trip id="299" depart="14.95" from="445014537#0" to="453040324#0" />
    <trip id="300" depart="15.0" from="-184739533#2" to="334124304" />
    <trip id="301" depart="15.05" from="184739533#1" to="194344119#1" />
    <trip id="302" depart="15.1" from="439902328#0" to="248282336#3" />
    <trip id="303" depart="15.15" from="-45838052#1" to="440057978" />
    <trip id="304" depart="15.2" from="429011420#1" to="442141003" />
    <trip id="305" depart="15.25" from="27318126#0" to="443365165" />
    <trip id="306" depart="15.3" from="199898038#0" to="429080720#3" />
    <trip id="307" depart="15.35" from="-302857648#0" to="233809679#1" />
    <trip id="308" depart="15.4" from="-100858016" to="453294515" />
    <trip id="309" depart="15.45" from="444232017#1" to="442084725#2" />
    <trip id="310" depart="15.5" from="442016955" to="444014979#2" />
    <trip id="311" depart="15.55" from="442232087" to="146688868#0" />
    <trip id="312" depart="15.6" from="-429080715" to="224934251#1" />
    <trip id="313" depart="15.65" from="-429011436#0" to="427774913#1" />
    <trip id="314" depart="15.7" from="429011422#3" to="439963561" />
    <trip id="315" depart="15.75" from="45838052#6" to="444422640#0" />
    <trip id="316" depart="15.8" from="-429011425" to="444351506" />
    <trip id="317" depart="15.85" from="461165663" to="442232085#1" />
    <trip id="318" depart="15.9" from="-429080720#3" to="427564712#0" />
    <trip id="319" depart="15.95" from="334124302#1" to="439897796" />
    <trip id="320" depart="16.0" from="-89797648#0" to="444018072" />
    <trip id="321" depart="16.05" from="-429011436#1" to="444111345" />
    <trip id="322" depart="16.1" from="79173488#2" to="462138646" />
    <trip id="323" depart="16.15" from="444351850#0" to="29140969#2" />
    <trip id="324" depart="16.2" from="460360345#2" to="440042584" />
    <trip id="325" depart="16.25" from="-429080700#5" to="440897782" />
    <trip id="326" depart="16.3" from="439902328#2" to="446269827#3" />
    <trip id="327" depart="16.35" from="45838048#1" to="-45838050" />
    <trip id="328" depart="16.4" from="302857649#1" to="427774900#1" />
    <trip id="329" depart="16.45" from="40020604" to="444422734" />
    <trip id="330" depart="16.5" from="-449860492" to="439963476" />
    <trip id="331" depart="16.55" from="455096004#1" to="322620773#1" />
    <trip id="332" depart="16.6" from="34374860" to="224732387" />
    <trip id="333" depart="16.65" from="461504894#1" to="449860494#0" />
    <trip id="334" depart="16.7" from="443365164" to="440187416#2" />
    <trip id="335" depart="16.75" from="-429080690" to="194344119#1" />
    <trip id="336" depart="16.8" from="306349105#1" to="-199896074#0" />
    <trip id="337" depart="16.85" from="440881469#3" to="-444111347#1" />
    <trip id="338" depart="16.9" from="444351506" to="243319597" />
    <trip id="339" depart="16.95" from="440044936#1" to="-232602663#0" />
    <trip id="340" depart="17.0" from="475301476" to="440771222" />
    <trip id="341" depart="17.05" from="-146688870#1" to="428729409#1" />
    <trip id="342" depart="17.1" from="440881632#0" to="456540544" />
    <trip id="343" depart="17.15" from="421238583" to="233809679#1" />
    <trip id="344" depart="17.2" from="79173488#6" to="428012640" />
    <trip id="345" depart="17.25" from="-428012644" to="232602662" />
    <trip id="346" depart="17.3" from="454300892#0" to="440881471#1" />
    <trip id="347" depart="17.35" from="444126138" to="439905478#0" />
    <trip id="348" depart="17.4" from="444232018#0" to="440765421" />
    <trip id="349" depart="17.45" from="232602663#0" to="443987642" />
    <trip id="350" depart="17.5" from="440897030#0" to="79174943" />
    <trip id="351" depart="17.55" from="440057976" to="454300892#1" />
    <trip id="352" depart="17.6" from="439895978#1" to="445046639#0" />
    <trip id="353" depart="17.65" from="-194443815" to="442232090#1" />
    <trip id="354" depart="17.7" from="444428465#0" to="442232090#0" />
    <trip id="355" depart="17.75" from="459592474" to="328501145" />
    <trip id="356" depart="17.8" from="322620775#1" to="27318112#0" />
    <trip id="357" depart="17.85" from="194344108#3" to="89797650#1" />
    <trip id="358" depart="17.9" from="440881469#1" to="-29141189#1" />
    <trip id="359" depart="17.95" from="454300896" to="302857653#0" />
    <trip id="360" depart="18.0" from="-429080702#4" to="446148172" />
    <trip id="361" depart="18.05" from="445080100#0" to="440897030#0" />
    <trip id="362" depart="18.1" from="440897382#1" to="440897030#0" />
    <trip id="363" depart="18.15" from="441997995#4" to="304755520" />
    <trip id="364" depart="18.2" from="-322629006#1" to="34374861" />
    <trip id="365" depart="18.25" from="146688868#2" to="304755520" />
    <trip id="366" depart="18.3" from="415259680" to="446269829#1" />
    <trip id="367" depart="18.35" from="444428465#1" to="441997995#5" />
    <trip id="368" depart="18.4" from="439902329#5" to="447215987#6" />
    <trip id="369" depart="18.45" from="453717285" to="445005880" />
    <trip id="370" depart="18.5" from="444014975#0" to="444111347#0" />
    <trip id="371" depart="18.55" from="449070493#1" to="-428012640" />
    <trip id="372" depart="18.6" from="429080700#3" to="445178978" />
    <trip id="373" depart="18.65" from="-429011422#3" to="-421238583" />
    <trip id="374" depart="18.7" from="440771237" to="445080100#1" />
    <trip id="375" depart="18.75" from="440038226" to="-449860494#1" />
    <trip id="376" depart="18.8" from="443160016" to="427774913#0" />
    <trip id="377" depart="18.85" from="-446269825" to="-427564710#1" />
    <trip id="378" depart="18.9" from="-194334826#1" to="428012640" />
    <trip id="379" depart="18.95" from="232796360#0" to="228124190" />
    <trip id="380" depart="19.0" from="29141189#1" to="458696110#0" />
    <trip id="381" depart="19.05" from="441997995#4" to="118265807" />
    <trip id="382" depart="19.1" from="-303475998#1" to="440771237" />
    <trip id="383" depart="19.15" from="-429011441#5" to="206608466#1" />
    <trip id="384" depart="19.2" from="444422644" to="-427564712#0" />
    <trip id="385" depart="19.25" from="303287747" to="461504894#2" />
    <trip id="386" depart="19.3" from="441943777" to="450614679" />
    <trip id="387" depart="19.35" from="243320230" to="457886988" />
    <trip id="388" depart="19.4" from="440881629#1" to="444422640#0" />
    <trip id="389" depart="19.45" from="302857655#0" to="460360352#3" />
    <trip id="390" depart="19.5" from="-453033846#2" to="447215989#2" />
    <trip id="391" depart="19.55" from="429011415#0" to="184827126" />
    <trip id="392" depart="19.6" from="456766133#0" to="-29141189#2" />
    <trip id="393" depart="19.65" from="441997995#5" to="-429011420#7" />
    <trip id="394" depart="19.7" from="-303720181" to="-443981914" />
    <trip id="395" depart="19.75" from="449785727#1" to="456766133#0" />
    <trip id="396" depart="19.8" from="461504894#1" to="444014977#0" />
    <trip id="397" depart="19.85" from="442016957#3" to="439901406#0" />
    <trip id="398" depart="19.9" from="445080099#0" to="445080099#3" />
    <trip id="399" depart="19.95" from="-439902715" to="89797648#1" />
    <trip id="400" depart="20.0" from="440037195" to="89797650#0" />
    <trip id="401" depart="20.05" from="446148169" to="-322620774#0" />
    <trip id="402" depart="20.1" from="456541503" to="429080702#4" />
    <trip id="403" depart="20.15" from="453297326" to="-45838052#0" />
    <trip id="404" depart="20.2" from="232602663#0" to="-429011441#4" />
    <trip id="405" depart="20.25" from="79173488#9" to="199898038#2" />
    <trip id="406" depart="20.3" from="429011422#0" to="-303475998#2" />
    <trip id="407" depart="20.35" from="-444111347#0" to="194334826#0" />
    <trip id="408" depart="20.4" from="444422734" to="442084727#1" />
    <trip id="409" depart="20.45" from="-421238583" to="-429011441#1" />
    <trip id="410" depart="20.5" from="232795046" to="446148167" />
    <trip id="411" depart="20.55" from="-322628961#0" to="29141657#0" />
    <trip id="412" depart="20.6" from="29141094" to="440881186#0" />
    <trip id="413" depart="20.65" from="439902716" to="232602654" />
    <trip id="414" depart="20.7" from="27318112#1" to="445046639#1" />
    <trip id="415" depart="20.75" from="439904288" to="453717287" />
    <trip id="416" depart="20.8" from="232967180" to="457885320#0" />
    <trip id="417" depart="20.85" from="442016956#4" to="439965069#0" />
    <trip id="418" depart="20.9" from="449785727#0" to="248407682" />