<?xml version="1.0"?>
<!-- generated on 2017-02-22 12:42:34.261000 by $Id: randomTrips.py 18756 2015-08-31 19:16:33Z behrisch $
  options: -n input_net.net.xml -e 25 -p 0.05
-->
<trips>
    <trip id="0" depart="0.00" from="427774899#2" to="29118093#3" />
    <trip id="1" depart="0.05" from="-302857650#0" to="-439902716" />
    <trip id="2" depart="0.10" from="447215989#2" to="439905478#1" />
    <trip id="3" depart="0.15" from="40016147#0" to="232967181#1" />
    <trip id="4" depart="0.20" from="206608466#1" to="440897780#0" />
    <trip id="5" depart="0.25" from="-406977632#1" to="440771220" />
    <trip id="6" depart="0.30" from="45838052#4" to="264037343#2+397488070#2" />
    <trip id="7" depart="0.35" from="29118093#5" to="248282332#1" />
    <trip id="8" depart="0.40" from="-429011422#1" to="233932486" />
    <trip id="9" depart="0.45" from="439963560" to="194344111" />
    <trip id="10" depart="0.50" from="-80912578#1" to="429011436#2" />
    <trip id="11" depart="0.55" from="440057978" to="440063026#0" />
    <trip id="12" depart="0.60" from="445167430" to="440769424" />
    <trip id="13" depart="0.65" from="443981914" to="442232085#1" />
    <trip id="14" depart="0.70" from="456766132#0" to="444433525#2" />
    <trip id="15" depart="0.75" from="457176635" to="146688871" />
    <trip id="16" depart="0.80" from="429011445#3" to="29141817" />
    <trip id="17" depart="0.85" from="45838052#4" to="456766132#3" />
    <trip id="18" depart="0.90" from="264037343#2+397488070#2" to="449860495" />
    <trip id="19" depart="0.95" from="462138645#3" to="444346472#0" />
    <trip id="20" depart="1.00" from="429011429#0" to="40016187#0" />
    <trip id="21" depart="1.05" from="302857655#1" to="264037342#2" />
    <trip id="22" depart="1.10" from="-199896074#1" to="442016279#1" />
    <trip id="23" depart="1.15" from="-454300885#0" to="194344117" />
    <trip id="24" depart="1.20" from="440202873" to="34374861" />
    <trip id="25" depart="1.25" from="264409075" to="444018072" />
    <trip id="26" depart="1.30" from="444351506" to="427774912#0" />
    <trip id="27" depart="1.35" from="248282332#3" to="440771230#0" />
    <trip id="28" depart="1.40" from="439963244" to="445080099#5" />
    <trip id="29" depart="1.45" from="440057979" to="442779563" />
    <trip id="30" depart="1.50" from="302857655#1" to="440897026#1" />
    <trip id="31" depart="1.55" from="448790076#1" to="194334820#3" />
    <trip id="32" depart="1.60" from="-29140830#2" to="194345864" />
    <trip id="33" depart="1.65" from="444433525#1" to="439900150" />
    <trip id="34" depart="1.70" from="199898409" to="442084736" />
    <trip id="35" depart="1.75" from="440046811" to="45838050" />
    <trip id="36" depart="1.80" from="440881632#1" to="-429080702#2" />
    <trip id="37" depart="1.85" from="-302857650#1" to="248407674#0" />
    <trip id="38" depart="1.90" from="194339709#1" to="429011433#1" />
    <trip id="39" depart="1.95" from="-89797645" to="462138644#0" />
    <trip id="40" depart="2.00" from="448786343" to="444119992" />
    <trip id="41" depart="2.05" from="448790076#0" to="462332989" />
    <trip id="42" depart="2.10" from="442779564" to="439900143" />
    <trip id="43" depart="2.15" from="443178672#0" to="429080700#4" />
    <trip id="44" depart="2.20" from="445080100#3" to="442084725#2" />
    <trip id="45" depart="2.25" from="442085401" to="429011430#1" />
    <trip id="46" depart="2.30" from="302857650#0" to="444428461#4" />
    <trip id="47" depart="2.35" from="440037763" to="440881637" />
    <trip id="48" depart="2.40" from="-322629114" to="450537289" />
    <trip id="49" depart="2.45" from="440041773#0" to="-303719972" />
    <trip id="50" depart="2.50" from="448781892" to="440041773#1" />
    <trip id="51" depart="2.55" from="-429080715" to="-29141057#0" />
    <trip id="52" depart="2.60" from="45838052#4" to="206608437" />
    <trip id="53" depart="2.65" from="427564712#1" to="450614679" />
    <trip id="54" depart="2.70" from="-184739533#2" to="444232018#4" />
    <trip id="55" depart="2.75" from="443987647" to="450614676" />
    <trip id="56" depart="2.80" from="444422640#2" to="303475992" />
    <trip id="57" depart="2.85" from="448949162" to="248282334#1" />
    <trip id="58" depart="2.90" from="80912821#2" to="146688868#0" />
    <trip id="59" depart="2.95" from="264037343#3+397488070#3" to="-427774899#2" />
    <trip id="60" depart="3.00" from="429011428" to="429011417#0" />
    <trip id="61" depart="3.05" from="118265791" to="439895978#0" />
    <trip id="62" depart="3.10" from="449860495" to="429011415#0" />
    <trip id="63" depart="3.15" from="442013841" to="440881636#0" />
    <trip id="64" depart="3.20" from="440057982" to="439897795#0" />
    <trip id="65" depart="3.25" from="449880708#1" to="232967182#1" />
    <trip id="66" depart="3.30" from="-429011429#3" to="406977632#1" />
    <trip id="67" depart="3.35" from="-199896076" to="247429030#0" />
    <trip id="68" depart="3.40" from="443178672#1" to="461510136" />
    <trip id="69" depart="3.45" from="-455096004#0" to="445080100#2" />
    <trip id="70" depart="3.50" from="440881634#1" to="429011415#1" />
    <trip id="71" depart="3.55" from="427774899#0" to="233337679" />
    <trip id="72" depart="3.60" from="-29141189#1" to="450920620" />
    <trip id="73" depart="3.65" from="-455105562#1" to="457885320#6" />
    <trip id="74" depart="3.70" from="442016956#3" to="440057982" />
    <trip id="75" depart="3.75" from="457885320#6" to="456540544" />
    <trip id="76" depart="3.80" from="440769424" to="-45838052#1" />
    <trip id="77" depart="3.85" from="442779565" to="462138644#1" />
    <trip id="78" depart="3.90" from="29118093#1" to="439895645" />
    <trip id="79" depart="3.95" from="445080100#4" to="445167429#0" />
    <trip id="80" depart="4.00" from="442879329#0" to="443987648#1" />
    <trip id="81" depart="4.05" from="-421239334" to="445167429#0" />
    <trip id="82" depart="4.10" from="302857653#1" to="146688870#0" />
    <trip id="83" depart="4.15" from="29140830#3" to="-429011436#0" />
    <trip id="84" depart="4.20" from="89797642" to="461505918#2" />
    <trip id="85" depart="4.25" from="440057977" to="443178673#1" />
    <trip id="86" depart="4.30" from="-199896074#1" to="444418076#1" />
    <trip id="87" depart="4.35" from="118265794" to="-306349105#1" />
    <trip id="88" depart="4.40" from="255645805#1" to="454300892#0" />
    <trip id="89" depart="4.45" from="-45838052#3" to="440769417" />
    <trip id="90" depart="4.50" from="442232086" to="232602656" />
    <trip id="91" depart="4.55" from="-440881469#2" to="440769426" />
    <trip id="92" depart="4.60" from="429011430#0" to="444111347#1" />
    <trip id="93" depart="4.65" from="457885320#3" to="440881636#2" />
    <trip id="94" depart="4.70" from="442014419#1" to="456766133#0" />
    <trip id="95" depart="4.75" from="29140830#3" to="118265821" />
    <trip id="96" depart="4.80" from="228123843" to="322620774#0" />
    <trip id="97" depart="4.85" from="439901406#4" to="444014978" />
    <trip id="98" depart="4.90" from="298344724" to="444126137" />
    <trip id="99" depart="4.95" from="447226543#0" to="444014978" />
    <trip id="100" depart="5.00" from="-303475998#3" to="206608466#1" />
    <trip id="101" depart="5.05" from="450920619#1" to="446269830#0" />
    <trip id="102" depart="5.10" from="40020608" to="27318126#1" />
    <trip id="103" depart="5.15" from="199898039" to="440040589" />
    <trip id="104" depart="5.20" from="232967184" to="-304755520" />
    <trip id="105" depart="5.25" from="439895978#1" to="440881631" />
    <trip id="106" depart="5.30" from="-232602663#1" to="-429080700#1" />
    <trip id="107" depart="5.35" from="-89797643" to="299795207" />
    <trip id="108" depart="5.40" from="454843354" to="439900151" />
    <trip id="109" depart="5.45" from="-80912580" to="456384920" />
    <trip id="110" depart="5.50" from="442016956#1" to="248407684#2" />
    <trip id="111" depart="5.55" from="447250373" to="454300892#1" />
    <trip id="112" depart="5.60" from="-322620773#4" to="444428461#0" />
    <trip id="113" depart="5.65" from="448280093" to="40016187#1" />
    <trip id="114" depart="5.70" from="446148172" to="29118093#0" />
    <trip id="115" depart="5.75" from="334124305#1" to="440769440" />
    <trip id="116" depart="5.80" from="442014419#1" to="-232602658#1" />
    <trip id="117" depart="5.85" from="224732386" to="454843354" />
    <trip id="118" depart="5.90" from="248284675" to="443987645#1" />
    <trip id="119" depart="5.95" from="441997993" to="397488070#5" />
    <trip id="120" depart="6.00" from="440881469#2" to="-306349105#0" />
    <trip id="121" depart="6.05" from="428729409#0" to="-303719968" />
    <trip id="122" depart="6.10" from="440774132" to="429011420#4" />
    <trip id="123" depart="6.15" from="456382186#0" to="461504894#0" />
    <trip id="124" depart="6.20" from="428012633" to="303719972" />
    <trip id="125" depart="6.25" from="443987648#0" to="264037343#3+397488070#3" />
    <trip id="126" depart="6.30" from="322629114" to="411044293" />
    <trip id="127" depart="6.35" from="-421238582" to="-322620773#0" />
    <trip id="128" depart="6.40" from="199896075#0" to="458084591#1" />
    <trip id="129" depart="6.45" from="441997994" to="146688868#0" />
    <trip id="130" depart="6.50" from="80912591#1" to="89797648#0" />
    <trip id="131" depart="6.55" from="-303475994" to="439963187" />
    <trip id="132" depart="6.60" from="439902716" to="462332533" />
    <trip id="133" depart="6.65" from="-454300885#0" to="89797650#1" />
    <trip id="134" depart="6.70" from="453033846#1" to="199898409" />
    <trip id="135" depart="6.75" from="-429011422#3" to="89797650#2" />
    <trip id="136" depart="6.80" from="264037343#2+397488070#2" to="428012641" />
    <trip id="137" depart="6.85" from="-429080716" to="440881185#1" />
    <trip id="138" depart="6.90" from="-302857656#0" to="443987642" />
    <trip id="139" depart="6.95" from="440041774" to="453297326" />
    <trip id="140" depart="7.00" from="312565414#0" to="441997997" />
    <trip id="141" depart="7.05" from="429080702#0" to="439963476" />
    <trip id="142" depart="7.10" from="460360352#1" to="449070495" />
    <trip id="143" depart="7.15" from="80912578#1" to="429011446" />
    <trip id="144" depart="7.20" from="429080720#2" to="430038917#0" />
    <trip id="145" depart="7.25" from="232967182#0" to="232795046" />
    <trip id="146" depart="7.30" from="440881471#1" to="-427564710#2" />
    <trip id="147" depart="7.35" from="303475998#2" to="264037342#1" />
    <trip id="148" depart="7.40" from="-302857656#2" to="444014979#2" />
    <trip id="149" depart="7.45" from="444119991" to="439902328#2" />
    <trip id="150" depart="7.50" from="444014978" to="89797642" />
    <trip id="151" depart="7.55" from="449785727#2" to="-427774900#0" />
    <trip id="152" depart="7.60" from="194334826#0" to="302857654" />
    <trip id="153" depart="7.65" from="188246591" to="440769433" />
    <trip id="154" depart="7.70" from="440769442" to="-429011441#5" />
    <trip id="155" depart="7.75" from="250274117#0" to="447226544" />
    <trip id="156" depart="7.80" from="334124305#0" to="455105562#1" />
    <trip id="157" depart="7.85" from="232602656" to="-194443816#1" />
    <trip id="158" depart="7.90" from="448790076#2" to="448781893#2" />
    <trip id="159" depart="7.95" from="450926204" to="445005880" />
    <trip id="160" depart="8.00" from="29118093#1" to="250274117#0" />
    <trip id="161" depart="8.05" from="442016956#0" to="442232089#0" />
    <trip id="162" depart="8.10" from="440881634#0" to="443987647" />
    <trip id="163" depart="8.15" from="224732387" to="439895967" />
    <trip id="164" depart="8.20" from="303475998#3" to="89797643" />
    <trip id="165" depart="8.25" from="448790073#1" to="445078265" />
    <trip id="166" depart="8.30" from="453717285" to="302857649#1" />
    <trip id="167" depart="8.35" from="442014418#0" to="440042637" />
    <trip id="168" depart="8.40" from="89797650#1" to="444419547" />
    <trip id="169" depart="8.45" from="442014417" to="-194334826#2" />
    <trip id="170" depart="8.50" from="-322620775#1" to="442232090#3" />
    <trip id="171" depart="8.55" from="248282332#0" to="-429011441#0" />
    <trip id="172" depart="8.60" from="-29140969#2" to="462138644#1" />
    <trip id="173" depart="8.65" from="-429011422#0" to="444232018#6" />
    <trip id="174" depart="8.70" from="-302857657#1" to="-429011429#2" />
    <trip id="175" depart="8.75" from="444126146" to="442084726" />
    <trip id="176" depart="8.80" from="440897030#1" to="440187411" />
    <trip id="177" depart="8.85" from="397488070#4" to="451041313" />
    <trip id="178" depart="8.90" from="448947832" to="440881563" />
    <trip id="179" depart="8.95" from="444018069#1" to="194334826#4" />
    <trip id="180" depart="9.00" from="248282332#3" to="429011441#4" />
    <trip id="181" depart="9.05" from="461505918#1" to="453294516#1" />
    <trip id="182" depart="9.10" from="29118093#2" to="-89797649" />
    <trip id="183" depart="9.15" from="-302857651" to="440064002" />
    <trip id="184" depart="9.20" from="264037343#3+397488070#3" to="-29141057#2" />
    <trip id="185" depart="9.25" from="440041774" to="429011445#1" />
    <trip id="186" depart="9.30" from="439895978#0" to="407995607" />
    <trip id="187" depart="9.35" from="442232090#0" to="429011415#0" />
    <trip id="188" depart="9.40" from="-454300882" to="-302857662#1" />
    <trip id="189" depart="9.45" from="453040323" to="-429080720#0" />
    <trip id="190" depart="9.50" from="444126143" to="27318126#2" />
    <trip id="191" depart="9.55" from="448790076#0" to="440187416#2" />
    <trip id="192" depart="9.60" from="80912591#1" to="421239334" />
    <trip id="193" depart="9.65" from="359990752#0" to="199898411" />
    <trip id="194" depart="9.70" from="-89797642" to="322628974" />
    <trip id="195" depart="9.75" from="444428463#2" to="-194443816#0" />
    <trip id="196" depart="9.80" from="429011430#3" to="322620773#3" />
    <trip id="197" depart="9.85" from="-29140969#0" to="302857659" />
    <trip id="198" depart="9.90" from="439895973" to="440897782" />
    <trip id="199" depart="9.95" from="302857654" to="444111347#1" />
    <trip id="200" depart="10.00" from="440042584" to="439900144" />
    <trip id="201" depart="10.05" from="247429030#1" to="445080099#0" />
    <trip id="202" depart="10.10" from="248282336#2" to="119029073" />
    <trip id="203" depart="10.15" from="-302857658#1" to="439963186" />
    <trip id="204" depart="10.20" from="243319591" to="199896075#3" />
    <trip id="205" depart="10.25" from="427564710#2" to="248282336#1" />
    <trip id="206" depart="10.30" from="444014976" to="440057980" />
    <trip id="207" depart="10.35" from="194344119#0" to="-456382186#1" />
    <trip id="208" depart="10.40" from="440881634#1" to="118265810#1" />
    <trip id="209" depart="10.45" from="40020609" to="194334820#2" />
    <trip id="210" depart="10.50" from="-302857651" to="439902329#5" />
    <trip id="211" depart="10.55" from="429080700#1" to="194344108#1" />
    <trip id="212" depart="10.60" from="457886987" to="445078262" />
    <trip id="213" depart="10.65" from="453717287" to="-427774900#0" />
    <trip id="214" depart="10.70" from="439900144" to="446269827#2" />
    <trip id="215" depart="10.75" from="444232017#0" to="-429011436#0" />
    <trip id="216" depart="10.80" from="440038226" to="460360352#3" />
    <trip id="217" depart="10.85" from="440037195" to="-427774913#0" />
    <trip id="218" depart="10.90" from="-302857656#1" to="442084736" />
    <trip id="219" depart="10.95" from="-428012652" to="429011428" />
    <trip id="220" depart="11.00" from="447226544" to="444422644" />
    <trip id="221" depart="11.05" from="-45838048#1" to="-29140969#0" />
    <trip id="222" depart="11.10" from="429011415#1" to="248284668" />
    <trip id="223" depart="11.15" from="440771237" to="248282336#0" />
    <trip id="224" depart="11.20" from="-248407683" to="232602661#1" />
    <trip id="225" depart="11.25" from="462332987" to="199897219" />
    <trip id="226" depart="11.30" from="302857653#2" to="-429080700#1" />
    <trip id="227" depart="11.35" from="439963186" to="79173488#4" />
    <trip id="228" depart="11.40" from="322629114" to="-45838048#0" />
    <trip id="229" depart="11.45" from="442014416" to="-439963560" />
    <trip id="230" depart="11.50" from="-428729409#0" to="442013841" />
    <trip id="231" depart="11.55" from="-194339709#1" to="118265817" />
    <trip id="232" depart="11.60" from="403907823" to="-406977632#0" />
    <trip id="233" depart="11.65" from="442232082#0" to="-429011441#3" />
    <trip id="234" depart="11.70" from="-322620773#3" to="194344107" />
    <trip id="235" depart="11.75" from="447215987#4" to="457885320#4" />
    <trip id="236" depart="11.80" from="453033846#0" to="440037194" />
    <trip id="237" depart="11.85" from="440771237" to="458696110#2" />
    <trip id="238" depart="11.90" from="-427774900#1" to="440881562#1" />
    <trip id="239" depart="11.95" from="444014975#1" to="444126139" />
    <trip id="240" depart="12.00" from="445078261#1" to="228123843" />
    <trip id="241" depart="12.05" from="440044936#4" to="302857653#0" />
    <trip id="242" depart="12.10" from="302857656#2" to="-429080720#2" />
    <trip id="243" depart="12.15" from="429011430#0" to="462138645#1" />
    <trip id="244" depart="12.20" from="448949162" to="183525918#1" />
    <trip id="245" depart="12.25" from="45838052#3" to="79173488#5" />
    <trip id="246" depart="12.30" from="459979070" to="45838052#6" />
    <trip id="247" depart="12.35" from="-45838048#1" to="439900151" />
    <trip id="248" depart="12.40" from="-429080702#0" to="440769419" />
    <trip id="249" depart="12.45" from="453033846#2" to="322629017#0" />
    <trip id="250" depart="12.50" from="29165179" to="29141670#1" />
    <trip id="251" depart="12.55" from="453717289#0" to="462138645#0" />
    <trip id="252" depart="12.60" from="447215990#0" to="444422640#0" />
    <trip id="253" depart="12.65" from="440042584" to="-429080700#0" />
    <trip id="254" depart="12.70" from="188246593" to="248284675" />
    <trip id="255" depart="12.75" from="89797646" to="439902329#0" />
    <trip id="256" depart="12.80" from="442084732#0" to="444351850#1" />
    <trip id="257" depart="12.85" from="194686987" to="459983714" />
    <trip id="258" depart="12.90" from="429011420#3" to="80912821#0" />
    <trip id="259" depart="12.95" from="440881562#1" to="442232081" />
    <trip id="260" depart="13.00" from="194339712" to="444418082" />
    <trip id="261" depart="13.05" from="440881469#2" to="447215989#1" />
    <trip id="262" depart="13.10" from="439895969#0" to="-302857656#3" />
    <trip id="263" depart="13.15" from="-429011433#1" to="-429011429#3" />
    <trip id="264" depart="13.20" from="-27318174#1" to="-304755520" />
    <trip id="265" depart="13.25" from="442779562" to="-194334826#3" />
    <trip id="266" depart="13.30" from="444232017#1" to="445078262" />
    <trip id="267" depart="13.35" from="440042637" to="444111347#0" />
    <trip id="268" depart="13.40" from="-440063996" to="444419548" />
    <trip id="269" depart="13.45" from="232967180" to="446269830#1" />
    <trip id="270" depart="13.50" from="306349105#1" to="243319597" />
    <trip id="271" depart="13.55" from="453717286" to="455096004#0" />
    <trip id="272" depart="13.60" from="460360345#0" to="89797648#0" />
    <trip id="273" depart="13.65" from="448786344" to="199896075#1" />
    <trip id="274" depart="13.70" from="439905478#1" to="444126144#0" />
    <trip id="275" depart="13.75" from="188246607" to="457885320#6" />
    <trip id="276" depart="13.80" from="440769435" to="457176636" />
    <trip id="277" depart="13.85" from="442014418#0" to="-427564714#0" />
    <trip id="278" depart="13.90" from="427774912#0" to="447226542#1" />
    <trip id="279" depart="13.95" from="-302857656#1" to="429080700#0" />
    <trip id="280" depart="14.00" from="448786343" to="442014418#1" />
    <trip id="281" depart="14.05" from="443178672#1" to="444126146" />
    <trip id="282" depart="14.10" from="442084725#0" to="302857655#0" />
    <trip id="283" depart="14.15" from="-89797648#1" to="444118069#1" />
    <trip id="284" depart="14.20" from="448790073#1" to="429011432" />
    <trip id="285" depart="14.25" from="-440881469#2" to="421239334" />
    <trip id="286" depart="14.30" from="445080100#5" to="439902329#6" />
    <trip id="287" depart="14.35" from="442232082#0" to="442232090#1" />
    <trip id="288" depart="14.40" from="-45838050" to="248282332#3" />
    <trip id="289" depart="14.45" from="-302857656#0" to="442016281" />
    <trip id="290" depart="14.50" from="194334826#0" to="453033846#1" />
    <trip id="291" depart="14.55" from="233809679#1" to="440881636#1" />
    <trip id="292" depart="14.60" from="450926204" to="444422640#1" />
    <trip id="293" depart="14.65" from="445078264" to="443178673#0" />
    <trip id="294" depart="14.70" from="-429011430#8" to="440881470#1" />
    <trip id="295" depart="14.75" from="440881629#0" to="-322620775#1" />
    <trip id="296" depart="14.80" from="439902328#3" to="441997995#2" />
    <trip id="297" depart="14.85" from="443178673#1" to="449706509" />
    <trip id="298" depart="14.90" from="456384921" to="233525478" />
    <trip id="299" depart="14.95" from="444418079" to="-446269827#0" />
    <trip id="300" depart="15.00" from="442232084" to="442084737" />
    <trip id="301" depart="15.05" from="429011441#4" to="444018069#0" />
    <trip id="302" depart="15.10" from="443987645#1" to="446269827#3" />
    <trip id="303" depart="15.15" from="454300892#1" to="322629023" />
    <trip id="304" depart="15.20" from="439895975" to="429011417#0" />
    <trip id="305" depart="15.25" from="194339709#0" to="462138645#3" />
    <trip id="306" depart="15.30" from="430038912" to="440769428" />
    <trip id="307" depart="15.35" from="247429030#1" to="457885320#7" />
    <trip id="308" depart="15.40" from="429080702#1" to="445080858" />
    <trip id="309" depart="15.45" from="-188248177" to="440042637" />
    <trip id="310" depart="15.50" from="89797642" to="429011430#7" />
    <trip id="311" depart="15.55" from="439902328#3" to="248282332#1" />
    <trip id="312" depart="15.60" from="439963244" to="440881469#0" />
    <trip id="313" depart="15.65" from="444119991" to="439902329#7" />
    <trip id="314" depart="15.70" from="429011445#0" to="446148167" />
    <trip id="315" depart="15.75" from="457886990" to="328501145" />
    <trip id="316" depart="15.80" from="444126136" to="40016187#0" />
    <trip id="317" depart="15.85" from="460360352#1" to="427774900#1" />
    <trip id="318" depart="15.90" from="184827120#0" to="444118069#1" />
    <trip id="319" depart="15.95" from="462138645#2" to="445078262" />
    <trip id="320" depart="16.00" from="445014535" to="303720181" />
    <trip id="321" depart="16.05" from="27318112#2" to="184827120#1" />
    <trip id="322" depart="16.10" from="443178671" to="-429080725" />
    <trip id="323" depart="16.15" from="442016957#4" to="302857650#0" />
    <trip id="324" depart="16.20" from="439897796" to="102596672" />
    <trip id="325" depart="16.25" from="443987644" to="448949162" />
    <trip id="326" depart="16.30" from="447215987#0" to="440897780#0" />
    <trip id="327" depart="16.35" from="440046811" to="302857655#1" />
    <trip id="328" depart="16.40" from="445014537#1" to="194334826#2" />
    <trip id="329" depart="16.45" from="449070493#1" to="440042637" />
    <trip id="330" depart="16.50" from="334124305#2" to="-429080720#1" />
    <trip id="331" depart="16.55" from="-430038919" to="442232083" />
    <trip id="332" depart="16.60" from="-440881469#1" to="427774913#1" />
    <trip id="333" depart="16.65" from="79173488#10" to="194339712" />
    <trip id="334" depart="16.70" from="453717286" to="444126146" />
    <trip id="335" depart="16.75" from="439901406#0" to="194334826#4" />
    <trip id="336" depart="16.80" from="312565415#0" to="-429080702#0" />
    <trip id="337" depart="16.85" from="232602654" to="440038226" />
    <trip id="338" depart="16.90" from="322628961#0" to="233810277" />
    <trip id="339" depart="16.95" from="199898039" to="303475998#2" />
    <trip id="340" depart="17.00" from="429011441#5" to="442084733#0" />
    <trip id="341" depart="17.05" from="232602661#1" to="232795047" />
    <trip id="342" depart="17.10" from="449070493#0" to="440881630" />
    <trip id="343" depart="17.15" from="440881469#1" to="27318112#5" />
    <trip id="344" depart="17.20" from="454300885#3" to="454300885#0" />
    <trip id="345" depart="17.25" from="442232085#0" to="442014419#0" />
    <trip id="346" depart="17.30" from="312565414#1" to="444232018#2" />
    <trip id="347" depart="17.35" from="444428461#0" to="302857659" />
    <trip id="348" depart="17.40" from="444243642#0" to="-27318174#1" />
    <trip id="349" depart="17.45" from="40016147#1" to="247429032#1" />
    <trip id="350" depart="17.50" from="429011420#1" to="439902715" />
    <trip id="351" depart="17.55" from="248407683" to="440881563" />
    <trip id="352" depart="17.60" from="-455105562#0" to="442232082#1" />
    <trip id="353" depart="17.65" from="461505918#0" to="442232085#1" />
    <trip id="354" depart="17.70" from="297891659#1" to="447226543#4" />
    <trip id="355" depart="17.75" from="194443816#0" to="460360345#4" />
    <trip id="356" depart="17.80" from="429011415#0" to="407995607" />
    <trip id="357" depart="17.85" from="-429011429#1" to="233809682" />
    <trip id="358" depart="17.90" from="444232018#4" to="27318112#8" />
    <trip id="359" depart="17.95" from="456384919" to="443987645#1" />
    <trip id="360" depart="18.00" from="224732387" to="445078264" />
    <trip id="361" depart="18.05" from="440881470#1" to="-429011441#3" />
    <trip id="362" depart="18.10" from="462138645#1" to="461504895" />
    <trip id="363" depart="18.15" from="-440064000" to="440881185#1" />
    <trip id="364" depart="18.20" from="-89797648#0" to="453717285" />
    <trip id="365" depart="18.25" from="444118069#0" to="444422640#1" />
    <trip id="366" depart="18.30" from="-429080700#5" to="-439902716" />
    <trip id="367" depart="18.35" from="440187409" to="444351852" />
    <trip id="368" depart="18.40" from="328501144" to="445080100#2" />
    <trip id="369" depart="18.45" from="429080702#4" to="233810277" />
    <trip id="370" depart="18.50" from="439963186" to="440062732#1" />
    <trip id="371" depart="18.55" from="444232017#0" to="442232081" />
    <trip id="372" depart="18.60" from="248284666" to="440897023#0" />
    <trip id="373" depart="18.65" from="-302857656#0" to="444232018#6" />
    <trip id="374" depart="18.70" from="27318112#7" to="194443815" />
    <trip id="375" depart="18.75" from="-194443816#1" to="248407678" />
    <trip id="376" depart="18.80" from="449070494" to="447226543#5" />
    <trip id="377" depart="18.85" from="184739533#0" to="439900140" />
    <trip id="378" depart="18.90" from="429080700#0" to="-429011430#1" />
    <trip id="379" depart="18.95" from="454300892#0" to="458714677" />
    <trip id="380" depart="19.00" from="453033846#0" to="440881563" />
    <trip id="381" depart="19.05" from="248407683" to="458696120#0" />
    <trip id="382" depart="19.10" from="233810275" to="440769417" />
    <trip id="383" depart="19.15" from="-429011441#5" to="458699294#0" />
    <trip id="384" depart="19.20" from="444111345" to="453040324#0" />
    <trip id="385" depart="19.25" from="439902329#0" to="440881562#0" />
    <trip id="386" depart="19.30" from="440040589" to="233809679#1" />
    <trip id="387" depart="19.35" from="322628961#0" to="194339709#1" />
    <trip id="388" depart="19.40" from="-427774900#1" to="454300892#2" />
    <trip id="389" depart="19.45" from="199896075#1" to="444433525#2" />
    <trip id="390" depart="19.50" from="302857649#1" to="-444418076#2" />
    <trip id="391" depart="19.55" from="248282332#3" to="233809686" />
    <trip id="392" depart="19.60" from="-322629017#0" to="194334826#0" />
    <trip id="393" depart="19.65" from="449706509" to="444419547" />
    <trip id="394" depart="19.70" from="439905478#0" to="440881636#1" />
    <trip id="395" depart="19.75" from="184827120#0" to="-302857649#1" />
    <trip id="396" depart="19.80" from="453717286" to="459592473#1" />
    <trip id="397" depart="19.85" from="199896075#2" to="442779564" />
    <trip id="398" depart="19.90" from="442084730#0" to="-440042637" />
    <trip id="399" depart="19.95" from="-429011420#1" to="79173488#3" />
    <trip id="400" depart="20.00" from="440044937#0" to="440881469#3" />
    <trip id="401" depart="20.05" from="427774899#2" to="449785726" />
    <trip id="402" depart="20.10" from="-429011431" to="-421238583" />
    <trip id="403" depart="20.15" from="45838052#4" to="439897796" />
    <trip id="404" depart="20.20" from="-322620774#0" to="232795046" />
    <trip id="405" depart="20.25" from="-444118069#1" to="442779564" />
    <trip id="406" depart="20.30" from="448786344" to="444418080" />
    <trip id="407" depart="20.35" from="359990752#0" to="429011425" />
    <trip id="408" depart="20.40" from="303719972" to="444119991" />
    <trip id="409" depart="20.45" from="-429080700#5" to="199896075#0" />
    <trip id="410" depart="20.50" from="264037342#0" to="79173587" />
    <trip id="411" depart="20.55" from="439895971" to="429011441#2" />
    <trip id="412" depart="20.60" from="-184739533#0" to="457886989" />
    <trip id="413" depart="20.65" from="429011441#0" to="430038912" />