<?xml version="1.0" encoding="UTF-8"?>

<!-- generated on 02/22/17 20:04:08 by SUMO duarouter Version 0.24.0
<?xml version="1.0" encoding="UTF-8"?>

<configuration xmlns:xsi="http://www.w3.org/2001/XMLSchema-instance" xsi:noNamespaceSchemaLocation="http://sumo.dlr.de/xsd/duarouterConfiguration.xsd">

    <input>
        <net-file value="input_net.net.xml"/>
        <trip-files value="trips.trips.xml"/>
    </input>

    <output>
        <output-file value="routes.rou.xml"/>
    </output>

</configuration>
-->

<routes xmlns:xsi="http://www.w3.org/2001/XMLSchema-instance" xsi:noNamespaceSchemaLocation="http://sumo.dlr.de/xsd/routes_file.xsd">
	<vType id="CarA" maxSpeed="15"/>
    <vehicle id="0" depart="0.00" type="CarA">
        <route edges="488#3 488#4 488#5 15#0 15#1 525#1 380 404#0 404#1 404#2 433#0 433#1 646 406#0 406#1 611 467#0 467#1 479 471#0 471#1 471#2 531 365 367"/>
    </vehicle>
    <vehicle id="1" depart="0.05" type="CarA">
        <route edges="525#1 380 404#0 404#1 432#1 455#0 455#1 455#2 460 456 389#0 51 46 675 668 618 659 656 617 566#0 -549#1 -549#0 546 485#6 485#7 485#8 485#9 590 18 518 17"/>
    </vehicle>
    <vehicle id="2" depart="0.10" type="CarA">
        <route edges="450 449#0 449#1 456 389#0 51 46 675 668 618 659 658 627 630 669#0 669#1 669#2 651 503 571#0 571#1 571#2"/>
    </vehicle>
    <vehicle id="3" depart="0.15" type="CarA">
        <route edges="624 523 609 536 667 554#0 554#1 -549#2 -549#1 586#2"/>
    </vehicle>
    <vehicle id="4" depart="0.20" type="CarA">
        <route edges="466#0 466#1 76 40 471#0 471#1 471#2 472#0 470 469#2 482 477 405#0 405#1 405#2 370 613#0 613#1 381"/>
    </vehicle>
    <vehicle id="5" depart="0.25" type="CarA">
        <route edges="-332#1 -332#0 316#1 348 601 70#0 70#1 604 603 505#0 23#0 23#1 659 656 617 566#0 566#1 566#2 566#3 649#0 649#1 649#2 649#3 649#4 43"/>
    </vehicle>
    <vehicle id="6" depart="0.30" type="CarA">
        <route edges="557#1 557#2 557#3 6 596#0 596#1 560 562 538#0 488#0 488#1 488#2 488#3 488#4 488#5 488#6 653 592 301 672 593 615 623#0 623#1 623#2 496#0 496#1"/>
    </vehicle>
    <vehicle id="7" depart="0.35" type="CarA">
        <route edges="374 97 455#2 460 456 389#0 51 46 675 668 618 659 658 627 628#0 628#1 629 505#0 23#0"/>
    </vehicle>
    <vehicle id="8" depart="0.40" type="CarA">
        <route edges="404#0 404#1 432#1 455#0 455#1 455#2 460 456 389#0 51 46 675 668 618 659 656 617 655 654"/>
    </vehicle>
    <vehicle id="9" depart="0.45" type="CarA">
        <route edges="670#1 502#2 -549#2 566#1 566#2 566#3 649#0 649#1 649#2 649#3 649#4 649#5 649#6 7 557#3 6 596#0 559 564"/>
    </vehicle>
    <vehicle id="10" depart="0.50" type="CarA">
        <route edges="621 444 661#0 661#1 474 575#1 443 660 442#0 469#1 469#2 482 477 405#0 405#1 405#2 478#0 410#1"/>
    </vehicle>
    <vehicle id="11" depart="0.55" type="CarA">
        <route edges="-511 -9 488#4 488#5 15#0 15#1 525#1 380 404#0 404#1 432#1 455#0 455#1 455#2 457#0 457#1 459#0 459#1 459#2"/>
    </vehicle>
    <vehicle id="12" depart="0.60" type="CarA">
        <route edges="68#0 68#1 68#2 647 626 617 566#0 566#1 566#2 566#3 650 525#0 525#1 380 404#0 404#1 404#2 433#0 433#1 646 394 407 643 398#0"/>
    </vehicle>
    <vehicle id="13" depart="0.65" type="CarA">
        <route edges="406#0 406#1 611 410#0 410#1 645 613#0 613#1 409#0 409#1 379 19 653 592 554#0"/>
    </vehicle>
    <vehicle id="14" depart="0.70" type="CarA">
        <route edges="526#6 526#7 484 485#1 485#2 674 668 618 659 658 627 630 669#0 669#1 669#2 651 568"/>
    </vehicle>
    <vehicle id="15" depart="0.75" type="CarA">
        <route edges="308 506#2 607 522 523 609 543#0 543#1 543#2 543#3 543#4 542#0 542#1 542#2 533 30#2 497 500 86"/>
    </vehicle>
    <vehicle id="16" depart="0.80" type="CarA">
        <route edges="31 494#0 494#1 506#0 506#1 506#2 507 594#1 594#2 68#0 68#1 68#2 647 626 617 655 654 673 668 24#0 24#1 570#0 570#1 438#0"/>
    </vehicle>
    <vehicle id="17" depart="0.85" type="CarA">
        <route edges="478#0 478#1 406#1 611 467#0 467#1 479 471#0 471#1 471#2 531 365 367"/>
    </vehicle>
    <vehicle id="18" depart="0.90" type="CarA">
        <route edges="431#1 432#0 432#1 455#0 455#1 455#2 460 456 389#0 51 46 675 668 618 659 658 627 630 669#0 669#1 669#2 651 503 569 350#3 350#0 501 493 494#0 494#1 495 60"/>
    </vehicle>
    <vehicle id="19" depart="0.95" type="CarA">
        <route edges="485#9 590 18 518 588 592 301 671 543#0 543#1 543#2 543#3 8#2 87#2"/>
    </vehicle>
    <vehicle id="20" depart="1.00" type="CarA">
        <route edges="459#0 56#0 56#1 613#1 409#0 409#1 379 19 653 592 301 671 543#0 543#1 543#2 543#3"/>
    </vehicle>
    <vehicle id="21" depart="1.05" type="CarA">
        <route edges="1#0 1#1 -9 488#4 488#5 488#6 652 586#0 586#1 586#2 654 673 668 618 659 658 627 628#0 -105#1 -105#0 -106#0"/>
    </vehicle>
    <vehicle id="22" depart="1.10" type="CarA">
        <route edges="22#0 22#1 358#1 340 540#1"/>
    </vehicle>
    <vehicle id="23" depart="1.15" type="CarA">
        <route edges="479 471#0 471#1 471#2 472#0 470 469#2 482 477 405#0 405#1 405#2 370 613#0 613#1 409#0 397#1 397#2 397#3 -98 527 526#0"/>
    </vehicle>
    <vehicle id="24" depart="1.20" type="CarA">
        <route edges="395 407 36 642 637#0 637#1 431#1 432#0 432#1 455#0 455#1 455#2 457#0 457#1 445 458 93"/>
    </vehicle>
    <vehicle id="25" depart="1.25" type="CarA">
        <route edges="536 666#0 666#1 650 525#0 525#1 380 404#0 404#1 432#1 455#0 374 378#0 378#1 461 405#2"/>
    </vehicle>
    <vehicle id="26" depart="1.30" type="CarA">
        <route edges="-549#2 566#1 566#2 44 592 301 672 519 594#0"/>
    </vehicle>
    <vehicle id="27" depart="1.35" type="CarA">
        <route edges="77#0 362 398#1 398#2 605#2 4 435 431#0 431#1 432#0 432#1 455#0 455#1"/>
    </vehicle>
    <vehicle id="28" depart="1.40" type="CarA">
        <route edges="551#1 -551#1 555#3 555#4 667 554#0 554#1 554#2 648 628#0 628#1 629 505#0"/>
    </vehicle>
    <vehicle id="29" depart="1.45" type="CarA">
        <route edges="9 -9 488#4 488#5 488#6 653 592 301 672 519 594#0 594#1 594#2"/>
    </vehicle>
    <vehicle id="30" depart="1.50" type="CarA">
        <route edges="49 47 48 526#7 484 485#1 485#2 485#3 485#4 545 549#0 549#1 566#1 566#2 566#3 649#0 649#1 649#2 649#3 649#4 649#5 565 538#3 598 542#0 542#1 542#2 534 532#0 557#0"/>
    </vehicle>
    <vehicle id="31" depart="1.55" type="CarA">
        <route edges="87#0 -87#0 -551#2 -551#1 555#3 555#4 667 554#0 554#1 554#2 647 626 617 655 654 673 668 24#0 24#1 570#0 570#1 438#0 438#1 384 429#0 429#1 437 110 355#0"/>
    </vehicle>
    <vehicle id="32" depart="1.60" type="CarA">
        <route edges="-551#0 649#3 649#4 649#5 486 488#2 488#3 488#4 488#5 15#0 15#1 525#1 380 404#0 404#1 404#2 433#0 433#1 646 394 407 36"/>
    </vehicle>
    <vehicle id="33" depart="1.65" type="CarA">
        <route edges="410#0 410#1 645 613#0 613#1 409#0 393 390 391 526#1 526#2 526#3 526#4 526#5 526#6 526#7 526#8 438#1 384 429#0 429#1 437 349 426#0 426#1"/>
    </vehicle>
    <vehicle id="34" depart="1.70" type="CarA">
        <route edges="565 538#3 555#0 555#1 555#2 555#3 555#4 667 554#0 554#1 554#2 647 626 617 655 654 673 668 24#0 24#1 570#0 570#1 427 59 20"/>
    </vehicle>
    <vehicle id="35" depart="1.75" type="CarA">
        <route edges="-511 -9 488#4 488#5 515 649#1 649#2 649#3 649#4 649#5 486 488#2 490#0"/>
    </vehicle>
    <vehicle id="36" depart="1.80" type="CarA">
        <route edges="519 594#0 594#1 502#0 544#0 670#3 672 593 615 623#0 623#1 623#2 496#0"/>
    </vehicle>
    <vehicle id="37" depart="1.85" type="CarA">
        <route edges="425#1 22#0 22#1 358#1 358#2 621 444 661#0 661#1 661#2 429#0 429#1 437 440 601 70#0 70#1 604 603 505#0 23#0 23#1 659 656 617 566#0 -549#1 -549#0 546 485#6 485#7 485#8 485#9 590 591#0 591#1 591#2 488#5 15#0"/>
    </vehicle>
    <vehicle id="38" depart="1.90" type="CarA">
        <route edges="566#3 649#0 649#1 649#2 649#3 649#4 649#5 486"/>
    </vehicle>
    <vehicle id="39" depart="1.95" type="CarA">
        <route edges="642 637#0 637#1 431#1 377 397#3 -98 527"/>
    </vehicle>
    <vehicle id="40" depart="2.00" type="CarA">
        <route edges="555#2 555#3 555#4 667 554#0 544#2 566#2 514 586#0 12 552"/>
    </vehicle>
    <vehicle id="41" depart="2.05" type="CarA">
        <route edges="-511 -9 488#4 488#5 488#6 652 586#0 586#1 586#2 654 673 668 24#0 24#1 570#0 570#1 438#0 438#1 384 429#0 429#1 437 110 356#0 -321#1 355#1"/>
    </vehicle>
    <vehicle id="42" depart="2.10" type="CarA">
        <route edges="479 471#0 471#1 471#2 472#0 470 469#2 468#0 468#1 449#0 449#1 456 389#0 51 46 675 668 618 659 656 617 566#0 -549#1 -549#0 546 485#6 485#7"/>
    </vehicle>
    <vehicle id="43" depart="2.15" type="CarA">
        <route edges="22#1 358#1 358#2 621 444 661#0 661#1 474 575#1 443 660 442#0 469#1 469#2 482 477 464 75 77#0 362 398#1 398#2 605#2 4 665#0 665#1 561 560 562 538#0 538#1 538#2"/>
    </vehicle>
    <vehicle id="44" depart="2.20" type="CarA">
        <route edges="-37 506#1 506#2 607 522 523 609 536 666#0 666#1 650 525#0 525#1 380 404#0 404#1 432#1 455#0 374 378#0 378#1 461 405#2 370"/>
    </vehicle>
    <vehicle id="45" depart="2.25" type="CarA">
        <route edges="378#1 -378#1 -378#0 97 455#2 460 439 579 436 421 425#0 425#1 22#0 22#1 358#1 340"/>
    </vehicle>
    <vehicle id="46" depart="2.30" type="CarA">
        <route edges="373 397#3 397#4 397#5 420 431#0 431#1 376 433#0 433#1 646 394 407 643 398#0 398#1 398#2 605#2 4 665#0 665#1 561 560 597"/>
    </vehicle>
    <vehicle id="47" depart="2.35" type="CarA">
        <route edges="418#1 425#1 22#0 22#1 358#1 358#2 621 444 661#0 661#1 661#2 429#0 429#1 437 440 601 70#0 70#1 604 603 505#0 23#0 23#1 659 656 617 566#0 566#1 566#2 44 592 301 671 543#0 -550#1 -550#0"/>
    </vehicle>
    <vehicle id="48" depart="2.40" type="CarA">
        <route edges="430 424 505#1 570#0 570#1 438#0 438#1 383 576 578 389#0 389#1 581 408#0 408#1 408#2 397#0 397#1 397#2 397#3 397#4 397#5 434 662#0 662#1 662#2"/>
    </vehicle>
    <vehicle id="49" depart="2.45" type="CarA">
        <route edges="459#2 477 405#0 462 -378#1 -378#0 97 455#2 460 439 579 436"/>
    </vehicle>
    <vehicle id="50" depart="2.50" type="CarA">
        <route edges="-65#1 65#1 537#1 537#2 670#0 68#2 647 626 617 566#0 -549#1 -549#0 546 485#6 485#7 485#8 485#9 590 591#0 591#1 591#2"/>
    </vehicle>
    <vehicle id="51" depart="2.55" type="CarA">
        <route edges="661#0 661#1 661#2 429#0 429#1 437 440 601 70#0 70#1 604 603 505#0 23#0 23#1 659 656 617 566#0 566#1 566#2 566#3 649#0 649#1 649#2 649#3 649#4 649#5 565 538#3 598 542#0 542#1 542#2 533 30#2 497 500"/>
    </vehicle>
    <vehicle id="52" depart="2.60" type="CarA">
        <route edges="641 644 640 642 638 646 406#0 406#1 611 467#0 467#1 479 471#0 446#0"/>
    </vehicle>
    <vehicle id="53" depart="2.65" type="CarA">
        <route edges="-491 -490#0 488#3 488#4 488#5 15#0 516#1 517 528 529 422 527 526#0 526#1 526#2 526#3 526#4 526#5 13"/>
    </vehicle>
    <vehicle id="54" depart="2.70" type="CarA">
        <route edges="526#2 526#3 526#4 526#5 526#6 526#7 484 485#1 485#2 674"/>
    </vehicle>
    <vehicle id="55" depart="2.75" type="CarA">
        <route edges="-12 586#1 549#1 566#1 566#2 566#3 649#0 649#1 649#2 649#3 649#4 649#5 486 488#2 488#3 9 1#0"/>
    </vehicle>
    <vehicle id="56" depart="2.80" type="CarA">
        <route edges="540#0 540#1"/>
    </vehicle>
    <vehicle id="57" depart="2.85" type="CarA">
        <route edges="471#2 472#0 470 469#2 468#0 468#1 449#0 449#1 456 389#0 51 46 675 668 618 659 658 627 628#0 -105#1 537#2"/>
    </vehicle>
    <vehicle id="58" depart="2.90" type="CarA">
        <route edges="-490#1 -490#0 488#3 488#4 488#5 488#6 652 586#0 586#1 586#2 654 673 668 24#0 24#1 570#0 570#1 438#0"/>
    </vehicle>
    <vehicle id="59" depart="2.95" type="CarA">
        <route edges="388#2 -388#2 -388#1 -388#0 -35 386#0 386#1 423 576 578 389#0 389#1 581 408#0 57 526#5 13 14 16"/>
    </vehicle>
    <vehicle id="60" depart="3.00" type="CarA">
        <route edges="384 429#0 429#1 437 440 601 70#0 70#1 604 603 505#0 23#0 23#1 659 658 627 628#0 -105#1 -105#0"/>
    </vehicle>
    <vehicle id="61" depart="3.05" type="CarA">
        <route edges="565 538#3 555#0 555#1 555#2 555#3 555#4 667 554#0 554#1 554#2 648 628#0 628#1 629 505#0 505#1"/>
    </vehicle>
    <vehicle id="62" depart="3.10" type="CarA">
        <route edges="409#1 379 19 652 586#0 586#1 549#1 566#1 566#2 566#3 650 525#0 525#1 380 404#0 404#1 432#1 455#0 374 97"/>
    </vehicle>
    <vehicle id="63" depart="3.15" type="CarA">
        <route edges="26 570#1 485#0 485#1 485#2 485#3 485#4 485#5 485#6 485#7 485#8 485#9 590 18"/>
    </vehicle>
    <vehicle id="64" depart="3.20" type="CarA">
        <route edges="600#0 -332#0 316#1 348 601 70#0 70#1 604 603 505#0 23#0 23#1 659 658 627 628#0 -105#1 -105#0 -106#0"/>
    </vehicle>
    <vehicle id="65" depart="3.25" type="CarA">
        <route edges="-96 96 397#5 420 431#0 431#1 432#0 432#1 455#0 455#1 455#2 460 456 389#0 51 46 675 668 618 659 656 617 566#0 566#1 566#2"/>
    </vehicle>
    <vehicle id="66" depart="3.30" type="CarA">
        <route edges="321#1 -321#1 355#1 -388#3 -388#2 -388#1 -388#0 -35 386#0 386#1 423 576 578 389#0 389#1 581 417 457#0 457#1 459#0 459#1 459#2 477 405#0 405#1 405#2 478#0"/>
    </vehicle>
    <vehicle id="67" depart="3.35" type="CarA">
        <route edges="501 493 494#0 494#1 506#0 506#1 506#2 607 522 523 609 543#0 543#1 543#2 543#3 543#4 542#0 542#1 542#2 534 532#0 557#0"/>
    </vehicle>
    <vehicle id="68" depart="3.40" type="CarA">
        <route edges="-550#0 649#2 551#0 555#3 555#4 667 301 672 519 594#0 594#1 594#2 498#0 504 503 569 350#3 350#0 350#1"/>
    </vehicle>
    <vehicle id="69" depart="3.45" type="CarA">
        <route edges="106#1 669#1 42 68#1 68#2 647 626 617 566#0 566#1 566#2 566#3 650 525#0 525#1 380 404#0 404#1 404#2 433#0 433#1 646 394 407 643 398#0 398#1 360 413#1 412 466#1 76"/>
    </vehicle>
    <vehicle id="70" depart="3.50" type="CarA">
        <route edges="299#1 70#1 604 603 505#0 505#1 570#0 570#1 438#0 438#1 575#0 575#1 443 660 442#0 469#1 469#2 482 477 405#0 462 -378#1"/>
    </vehicle>
    <vehicle id="71" depart="3.55" type="CarA">
        <route edges="-388#3 -388#2 -388#1 -388#0 -35 386#0 386#1 423 576 578 389#0 389#1 581 408#0 408#1 408#2 397#0 397#1 404#1 404#2 433#0 94 -637#0 638"/>
    </vehicle>
    <vehicle id="72" depart="3.60" type="CarA">
        <route edges="409#1 379 19 652 586#0 586#1 549#1 566#1 566#2 566#3 649#0 649#1 649#2 649#3 649#4 649#5 649#6 7 557#3 6"/>
    </vehicle>
    <vehicle id="73" depart="3.65" type="CarA">
        <route edges="504 503 569 350#3 350#0 501 493 494#0 494#1 506#0 506#1 506#2 607"/>
    </vehicle>
    <vehicle id="74" depart="3.70" type="CarA">
        <route edges="541 548 542#2 533 30#2 497 500 86 68#0 68#1 68#2 647 626 617 655 654 53"/>
    </vehicle>
    <vehicle id="75" depart="3.75" type="CarA">
        <route edges="440 601 70#0 70#1 604 603 505#0 23#0 23#1 659 656 617 566#0 566#1 566#2 566#3 649#0 649#1 649#2 551#0 551#1 551#2 551#3 508#1"/>
    </vehicle>
    <vehicle id="76" depart="3.80" type="CarA">
        <route edges="377 397#3 397#4 397#5 420 431#0 431#1 432#0 432#1 455#0 455#1 455#2 460 439 579 382 443 660 442#0 469#1 469#2 482"/>
    </vehicle>
    <vehicle id="77" depart="3.85" type="CarA">
        <route edges="478#0 410#1 645 613#0 613#1 415 455#0 455#1 455#2 460 439 579 436 421 425#0 425#1 22#0 22#1 358#1 358#2 621"/>
    </vehicle>
    <vehicle id="78" depart="3.90" type="CarA">
        <route edges="350#3 350#0 350#1 64 571#0 571#1 571#2 629 505#0 505#1 570#0 570#1 438#0 438#1 384 429#0 429#1 437 110 356#0 356#1"/>
    </vehicle>
    <vehicle id="79" depart="3.95" type="CarA">
        <route edges="3 538#2 538#3 555#0 555#1 555#2 555#3 555#4 667 554#0 554#1 554#2 647 626 617 655 654 673 668 24#0 24#1 570#0 570#1 438#0 438#1 384 429#0 429#1 437 440 601 70#0 -299#1 -332#1 -332#0 316#1"/>
    </vehicle>
    <vehicle id="80" depart="4.00" type="CarA">
        <route edges="526#3 526#4 526#5 526#6 526#7 526#8 438#1 384 429#0 429#1 437 440 601 70#0 -299#1 -332#1 332#1"/>
    </vehicle>
    <vehicle id="81" depart="4.05" type="CarA">
        <route edges="410#0 410#1 645 613#0 613#1 415 455#0 455#1 455#2 460 456 389#0 389#1"/>
    </vehicle>
    <vehicle id="82" depart="4.10" type="CarA">
        <route edges="558#1 558#2 488#1 488#2 488#3 488#4 488#5 15#0 15#1 525#1 380 404#0 404#1 432#1 455#0 455#1 455#2 457#0 457#1 459#0 459#1 459#2 477 405#0 462"/>
    </vehicle>
    <vehicle id="83" depart="4.15" type="CarA">
        <route edges="299#1 -299#1 -332#1"/>
    </vehicle>
    <vehicle id="84" depart="4.20" type="CarA">
        <route edges="569 350#3 350#0 350#1 64 571#0 571#1 571#2 629 505#0 505#1 570#0 570#1 438#0 438#1 383 576 578 389#0 389#1 581 408#0 408#1 408#2 397#0 397#1 404#1 404#2 433#0 433#1 646 394 407 643 398#0"/>
    </vehicle>
    <vehicle id="85" depart="4.25" type="CarA">
        <route edges="571#0 571#1 537#0 537#1 537#2 670#0 670#1 670#2 670#3 672"/>
    </vehicle>
    <vehicle id="86" depart="4.30" type="CarA">
        <route edges="51 46 675 668 618 659 656 617 566#0 566#1 566#2 44 592 301 672 593 584"/>
    </vehicle>
    <vehicle id="87" depart="4.35" type="CarA">
        <route edges="418#0 418#1 425#1 22#0 22#1 358#1 358#2 621 444 661#0 661#1 661#2 429#0 429#1 437 440 601 70#0 70#1 604 603 505#0 23#0 23#1 659 656 617 566#0 566#1 566#2 566#3 649#0 649#1"/>
    </vehicle>
    <vehicle id="88" depart="4.40" type="CarA">
        <route edges="649#4 649#5 486 488#2 488#3 488#4 488#5 15#0 15#1 525#1 380 404#0 404#1 404#2 433#0 94"/>
    </vehicle>
    <vehicle id="89" depart="4.45" type="CarA">
        <route edges="595 556 553#0 599 555#0 555#1 555#2 555#3 555#4 666#0 666#1 650 525#0 525#1 380 404#0 404#1 404#2 433#0 433#1 646 394 407 643 398#0 398#1 398#2 605#2 4 665#0 665#1 561"/>
    </vehicle>
    <vehicle id="90" depart="4.50" type="CarA">
        <route edges="600#1 348 601 70#0 70#1 604 603 505#0 23#0 23#1 659 656 617 566#0 566#1 566#2 514 586#0 586#1"/>
    </vehicle>
    <vehicle id="91" depart="4.55" type="CarA">
        <route edges="397#3 397#4 397#5 420 431#0 431#1 376 433#0 433#1 646 406#0 406#1 611 467#0"/>
    </vehicle>
    <vehicle id="92" depart="4.60" type="CarA">
        <route edges="598 542#0 541 -87#2 -87#1 -87#0 -551#2 -551#1 555#3 555#4 667 554#0 554#1"/>
    </vehicle>
    <vehicle id="93" depart="4.65" type="CarA">
        <route edges="527 526#0 526#1 375 408#2 416 455#0 455#1 455#2 460 456 389#0 389#1 581 408#0"/>
    </vehicle>
    <vehicle id="94" depart="4.70" type="CarA">
        <route edges="1#1 -9 488#4 488#5 15#0 516#1 517 528 529 422 527 402 403#0"/>
    </vehicle>
    <vehicle id="95" depart="4.75" type="CarA">
        <route edges="649#2 551#0 555#3 555#4 667 301 672 487"/>
    </vehicle>
    <vehicle id="96" depart="4.80" type="CarA">
        <route edges="402 403#0 403#1 433#0 433#1 646 372 645 613#0 -56#1 -56#0 459#1 459#2 477 405#0 405#1"/>
    </vehicle>
    <vehicle id="97" depart="4.85" type="CarA">
        <route edges="461 405#2 370 613#0 613#1 409#0 409#1 379 19 653 592 554#0 -544#1 670#3"/>
    </vehicle>
    <vehicle id="98" depart="4.90" type="CarA">
        <route edges="549#1 -549#1 586#2 654 673 668 24#0 10"/>
    </vehicle>
    <vehicle id="99" depart="4.95" type="CarA">
        <route edges="389#0 389#1 581 417 457#0 457#1 445 458"/>
    </vehicle>
    <vehicle id="100" depart="5.00" type="CarA">
        <route edges="485#4 545 549#0 586#2 654 673 668 24#0 24#1 570#0 570#1 438#0 438#1 384 429#0 429#1 437 440 601 70#0 70#1"/>
    </vehicle>
    <vehicle id="101" depart="5.05" type="CarA">
        <route edges="-634#1 634#1 634#2 662#1 662#2 663 664#0 361 413#1 463#0 463#1 463#2 611 410#0 410#1 645 613#0 613#1 409#0 393 390 391 526#1 526#2 526#3 526#4 526#5 526#6 526#7 526#8 438#1 384 429#0 429#1 437 440 601 70#0 70#1"/>
    </vehicle>
    <vehicle id="102" depart="5.10" type="CarA">
        <route edges="408#1 408#2 397#0 409#1 379 19 653 592 554#0 -544#1 670#3"/>
    </vehicle>
    <vehicle id="103" depart="5.15" type="CarA">
        <route edges="470 469#2 482 477 405#0 405#1 405#2 370 613#0 613#1 409#0 397#1 404#1 404#2"/>
    </vehicle>
    <vehicle id="104" depart="5.20" type="CarA">
        <route edges="22#0 22#1 358#1 358#2 621 444 661#0 661#1 474 575#1 443 660 442#0 469#1 469#2 482 477 405#0 405#1 405#2 478#0 478#1 478#2 407 36"/>
    </vehicle>
    <vehicle id="105" depart="5.25" type="CarA">
        <route edges="647 626 617 566#0 -549#1 -549#0 546 485#6"/>
    </vehicle>
    <vehicle id="106" depart="5.30" type="CarA">
        <route edges="557#3 6 596#0 596#1 560 562 538#0 488#0 488#1 488#2 488#3 488#4 488#5"/>
    </vehicle>
    <vehicle id="107" depart="5.35" type="CarA">
        <route edges="570#0 570#1 438#0 438#1 383 576 577 579 436 421 425#0 425#1 22#0"/>
    </vehicle>
    <vehicle id="108" depart="5.40" type="CarA">
        <route edges="461 405#2 478#0 478#1 478#2"/>
    </vehicle>
    <vehicle id="109" depart="5.45" type="CarA">
        <route edges="377 397#3 -98 527 526#0 526#1 375 408#2 397#0 409#1 379 19 653 592 301 672 593 615"/>
    </vehicle>
    <vehicle id="110" depart="5.50" type="CarA">
        <route edges="232 356#0 -321#1 355#1 -388#3 -388#2 -388#1 -388#0 -35 386#0 386#1 423 576 578 389#0 389#1 581 408#0 408#1 408#2 397#0 397#1 404#1 404#2 433#0 433#1 646 394 407 643 396"/>
    </vehicle>
    <vehicle id="111" depart="5.55" type="CarA">
        <route edges="356#0 -321#1 355#1 -388#3 -388#2 -388#1 -388#0 -35 386#0 386#1 423 576 578 389#0 51 46 675 668 24#0 24#1 570#0 570#1"/>
    </vehicle>
    <vehicle id="112" depart="5.60" type="CarA">
        <route edges="377 397#3 -98 527 526#0 526#1 375 408#2 397#0 409#1 379 19 653 592 301 671 543#0 543#1 543#2 -341"/>
    </vehicle>
    <vehicle id="113" depart="5.65" type="CarA">
        <route edges="487 609 536 667 554#0 554#1 554#2 647 626 617 655 654 673 668 24#0 24#1 570#0 570#1 438#0 438#1 384 429#0 429#1 437 110 356#0 -321#1 -321#0"/>
    </vehicle>
    <vehicle id="114" depart="5.70" type="CarA">
        <route edges="57 526#5 526#6 526#7 526#8 438#1 383 576 578 389#0 389#1 581 417 457#0 457#1 445 458 93"/>
    </vehicle>
    <vehicle id="115" depart="5.75" type="CarA">
        <route edges="-544#0 502#1 502#2 -549#2 566#1 566#2 566#3 650 525#0 525#1 380 404#0 404#1 404#2 433#0 433#1 646 406#0 406#1 611 467#0 467#1 479"/>
    </vehicle>
    <vehicle id="116" depart="5.80" type="CarA">
        <route edges="586#0 586#1 586#2 654 52 50 616 581 417 457#0 457#1 459#0 459#1 459#2 477 464 75"/>
    </vehicle>
    <vehicle id="117" depart="5.85" type="CarA">
        <route edges="406#1 611 410#0 478#1 478#2 407 643 398#0 398#1 360 413#1"/>
    </vehicle>
    <vehicle id="118" depart="5.90" type="CarA">
        <route edges="372 645 613#0 613#1 415 455#0 455#1 455#2 460 439"/>
    </vehicle>
    <vehicle id="119" depart="5.95" type="CarA">
        <route edges="661#1 661#2 429#0 429#1 437 440 601 70#0 70#1 604 603 505#0 23#0 23#1 659 656 617 566#0 566#1 566#2 514"/>
    </vehicle>
    <vehicle id="120" depart="6.00" type="CarA">
        <route edges="580 570#0 570#1 485#0 485#1"/>
    </vehicle>
    <vehicle id="121" depart="6.05" type="CarA">
        <route edges="548 542#2 533 30#2 497 500 86 68#0 68#1 68#2 647 626 617 655 654 52 50 616 581 417 460 439 579 436 421 425#0 425#1 22#0 22#1 358#1 358#2"/>
    </vehicle>
    <vehicle id="122" depart="6.10" type="CarA">
        <route edges="-544#0 502#1 502#2 554#2 647 626 617 655 654 673 668 24#0 24#1 570#0 570#1 438#0 438#1 384 429#0 429#1 437 440 601 573 39"/>
    </vehicle>
    <vehicle id="123" depart="6.15" type="CarA">
        <route edges="505#0 23#0 23#1 659 656 617 566#0 566#1 566#2 44 592 301 672 593 615 623#0 623#1 623#2"/>
    </vehicle>
    <vehicle id="124" depart="6.20" type="CarA">
        <route edges="-490#1 -490#0 488#3 488#4 488#5 15#0 15#1 525#1 380 404#0 404#1 432#1 455#0 455#1 455#2 460 439 579 436 421 425#0 425#1 22#0 22#1 358#1 358#2"/>
    </vehicle>
    <vehicle id="125" depart="6.25" type="CarA">
        <route edges="549#2 554#2 647 626 617 655 654 52 50 616 581 417 457#0 457#1 445"/>
    </vehicle>
    <vehicle id="126" depart="6.30" type="CarA">
        <route edges="651 503 571#0 571#1 571#2 629 505#0 23#0 23#1 659 656 617 566#0 566#1 566#2 566#3 650 516#0 516#1 513"/>
    </vehicle>
    <vehicle id="127" depart="6.35" type="CarA">
        <route edges="95 437 440 601 70#0 70#1 604 603 505#0 23#0 23#1 659 656 617 566#0 566#1 566#2 566#3 649#0 649#1 649#2 649#3 649#4 649#5 565 538#3 598 542#0 542#1 542#2 534 532#0 557#0 557#1 557#2"/>
    </vehicle>
    <vehicle id="128" depart="6.40" type="CarA">
        <route edges="506#1 506#2 507 594#1 594#2 68#0 68#1 68#2 647 626 617 655 654 52 50 616 581 408#0 408#1 408#2 397#0 397#1"/>
    </vehicle>
    <vehicle id="129" depart="6.45" type="CarA">
        <route edges="596#1 560 562 538#0 488#0 488#1 488#2 488#3 488#4 488#5 15#0 15#1 525#1 380 404#0 404#1 404#2 433#0 94 -637#0 638"/>
    </vehicle>
    <vehicle id="130" depart="6.50" type="CarA">
        <route edges="507 594#1 594#2 68#0 68#1 68#2 647 626 617 655 654 673 668 24#0 24#1 570#0 570#1 438#0 438#1 384 429#0 429#1 437 110 356#0 -321#1 355#1 -388#3 -388#2 -388#1 -388#0 388#0"/>
    </vehicle>
    <vehicle id="131" depart="6.55" type="CarA">
        <route edges="586#2 654 673 668 618 659 656 617 566#0 566#1 566#2 566#3 649#0 649#1 649#2 551#0 551#1 551#2 87#0 341"/>
    </vehicle>
    <vehicle id="132" depart="6.60" type="CarA">
        <route edges="-98 527 526#0 526#1 375 408#2 416 455#0 455#1 455#2 460 439 579 436 421 425#0 425#1 22#0 354#2"/>
    </vehicle>
    <vehicle id="133" depart="6.65" type="CarA">
        <route edges="554#2 648 630 669#0 669#1 669#2 651 503 569 350#3 350#0 501 493"/>
    </vehicle>
    <vehicle id="134" depart="6.70" type="CarA">
        <route edges="661#0 661#1 661#2 429#0 429#1 437 440 601 70#0 70#1 604 603 505#0 23#0 23#1 659 656 617 566#0 566#1 566#2 566#3 649#0 649#1 649#2 649#3 8#0 555#2"/>
    </vehicle>
    <vehicle id="135" depart="6.75" type="CarA">
        <route edges="616 581 408#0 408#1 408#2 397#0 397#1 404#1 404#2 433#0 433#1 646 394 407 643 398#0 398#1 360 413#1 412 466#1 76"/>
    </vehicle>
    <vehicle id="136" depart="6.80" type="CarA">
        <route edges="605#0 413#0 413#1 463#0 463#1 395 407 643 398#0 398#1 398#2"/>
    </vehicle>
    <vehicle id="137" depart="6.85" type="CarA">
        <route edges="-10 10 485#2 485#3 485#4 545 549#0 549#1 566#1 566#2 566#3 649#0 649#1 649#2 649#3 649#4 649#5 565 538#3 555#0"/>
    </vehicle>
    <vehicle id="138" depart="6.90" type="CarA">
        <route edges="-549#2 -549#1 586#2 654 52 50 616 581 417 460"/>
    </vehicle>
    <vehicle id="139" depart="6.95" type="CarA">
        <route edges="543#4 542#0 541 -87#2 -87#1 -87#0 -551#2 -551#1 555#3 555#4 667 554#0 -544#1 -544#0"/>
    </vehicle>
    <vehicle id="140" depart="7.00" type="CarA">
        <route edges="-634#1 634#1 634#2 662#1 662#2 663 664#0 361 413#1 463#0 463#1 463#2 611 410#0 410#1 645 613#0 613#1 409#0 409#1 379 19 653 592 301 671 543#0 543#1 551#2 551#3"/>
    </vehicle>
    <vehicle id="141" depart="7.05" type="CarA">
        <route edges="532#1 5 29 664#0 361 413#1 463#0 463#1 463#2 611 410#0 410#1 645 613#0 613#1 409#0 409#1 379 19 652 586#0 586#1 549#1 566#1 566#2 566#3 650"/>
    </vehicle>
    <vehicle id="142" depart="7.10" type="CarA">
        <route edges="441#1 539 469#0 469#1 469#2 468#0 468#1 449#0 449#1 456 389#0 51 46 675 668 618 659 656 617 566#0 566#1 566#2 566#3 649#0 649#1 649#2 649#3 649#4 649#5 565 538#3 555#0"/>
    </vehicle>
    <vehicle id="143" depart="7.15" type="CarA">
        <route edges="30#2 508#0 -551#3 87#0 87#1 87#2 548 542#2 534 532#0"/>
    </vehicle>
    <vehicle id="144" depart="7.20" type="CarA">
        <route edges="600#0 -332#0 316#1 348 601 70#0 70#1 604 603 505#0 23#0 23#1 659 656 617 566#0 566#1 566#2 566#3 649#0 649#1 649#2 649#3 649#4 649#5 649#6 7 557#3 6 596#0 596#1"/>
    </vehicle>
    <vehicle id="145" depart="7.25" type="CarA">
        <route edges="-105#1 537#2 670#0 68#2 647 626 617 655 654 673 668 618 659 656"/>
    </vehicle>
    <vehicle id="146" depart="7.30" type="CarA">
        <route edges="620 366 359 369 468#0 468#1 449#0 449#1 456 389#0 51 46 675 668 618 659 658 627 630 669#0 669#1 669#2 651 503 569 350#3 350#0 501 493 494#0 494#1 495"/>
    </vehicle>
    <vehicle id="147" depart="7.35" type="CarA">
        <route edges="668 618 659 656 617 566#0 566#1 566#2 566#3 650 525#0 525#1 380 404#0 404#1 404#2 433#0 433#1 646 394 407 643 398#0"/>
    </vehicle>
    <vehicle id="148" depart="7.40" type="CarA">
        <route edges="518 17 586#0 586#1 549#1 566#1 566#2 566#3 649#0 649#1 649#2 551#0"/>
    </vehicle>
    <vehicle id="149" depart="7.45" type="CarA">
        <route edges="478#2 407 36 642 638 646 372 645 613#0 613#1 409#0 409#1 379 19 653 592 554#0 -544#1 -544#0"/>
    </vehicle>
    <vehicle id="150" depart="7.50" type="CarA">
        <route edges="382 443 660 442#0 469#1 469#2 482 477 464 75 77#0 362 398#1 360 413#1 463#0"/>
    </vehicle>
    <vehicle id="151" depart="7.55" type="CarA">