<?xml version="1.0" encoding="UTF-8"?>

<!-- generated on 02/22/17 20:20:45 by SUMO duarouter Version 0.24.0
<?xml version="1.0" encoding="UTF-8"?>

<configuration xmlns:xsi="http://www.w3.org/2001/XMLSchema-instance" xsi:noNamespaceSchemaLocation="http://sumo.dlr.de/xsd/duarouterConfiguration.xsd">

    <input>
        <net-file value="input_net.net.xml"/>
        <trip-files value="trips.trips.xml"/>
    </input>

    <output>
        <output-file value="routes.rou.xml"/>
    </output>

</configuration>
-->

<routes xmlns:xsi="http://www.w3.org/2001/XMLSchema-instance" xsi:noNamespaceSchemaLocation="http://sumo.dlr.de/xsd/routes_file.xsd">
    <vehicle id="0" depart="0.00">
        <route edges="2039#0 904#0 1466#3 1466#4 1466#5 2030#0 2030#1 2030#2 1834 1841#0 1841#1 1841#2 1836 1010#0 1010#1 1061#0 1061#1 1061#2 1061#3 1137#0 -625 645#2 -645#2"/>
    </vehicle>
    <vehicle id="1" depart="0.05">
        <route edges="1028 1998#5 331#0 1999#2 1999#3 1999#4 1999#5 1999#6 1999#7 1147 2002 1998#0 1998#1 1998#2"/>
    </vehicle>
    <vehicle id="2" depart="0.10">
        <route edges="433#4 436#1 435#1 160#1 766#1 1874 1962 1869#0 1869#1 1958 315 973 2023 2024#0 2024#1 1840 26#0 26#1 1971#0 1971#1 1971#2 1144 372 1973#0 1973#1 1849 1472#0 1472#1 1709 970#0 970#1 347 346#0 936 49 1066 1042#0 1042#1 1042#2 1042#3 1042#4 1042#5 1042#6 1042#7 -391"/>
    </vehicle>
    <vehicle id="3" depart="0.15">
        <route edges="1712#1 20#1 1953 1954#0 1954#1 1149 1998#0 1998#1 1998#2 1998#3 1998#4 1998#5 1998#6 208#0 208#1 208#2 1014#0 1010#1"/>
    </vehicle>
    <vehicle id="4" depart="0.20">
        <route edges="-949#2 949#2 949#3 949#4 952#3 952#4 952#5 952#6 2039#0 2039#1 2039#2 2001#2 865#2 1996#3 1996#4 878#0 -878#0"/>
    </vehicle>
    <vehicle id="5" depart="0.25">
        <route edges="-904#9 904#9 904#10 2040#3 2040#4 2040#5 2040#6 1978 1931#0 2036#3 2028 2015#0 2015#1 2015#2 913"/>
    </vehicle>
    <vehicle id="6" depart="0.30">
        <route edges="-1098#1 -1098#0 -1088 -1089 1003#3 1087 1165#0 1165#1 1165#2 1165#3 1165#4 1827 389 919#0 919#1 919#2 919#3 919#4 919#5 1009 1839 1835 1007#0 1007#1 1007#2 1007#3 2040#0 2040#1 2040#2 2040#3 2040#4 2040#5 2040#6 1978 1931#0 1931#1 1931#2 1931#3 1869#0 1957#1 1874 1969#0 -914#4"/>
    </vehicle>
    <vehicle id="7" depart="0.35">
        <route edges="379 1003#0 1003#1 1003#2 1003#3 1087 1165#0 1165#1 1165#2 1165#3 1165#4 1827 389 919#0 919#1 919#2 919#3 919#4 919#5 1009 1839 1835 1007#0 1007#1 1007#2 1007#3 2040#0 2040#1 2040#2 2040#3 2040#4 2040#5 2040#6 1978 1931#0 1931#1 1931#2 1931#3 1869#0 1869#1 1958 315 973 2023 2024#0 2024#1 1837#0 28#2 1831#0 1831#1 1831#2"/>
    </vehicle>
    <vehicle id="8" depart="0.40">
        <route edges="-976#2 -976#1 -976#0 40 1845 1697 -81#1 -81#0 -347 -970#1 -970#0 4 1700 909#0 909#1 1473#0 1473#1 1473#2 1473#3 1473#4 1473#5 1473#6 1473#7 1473#8 1473#9 1893#0 1893#1 1893#2 1893#3 1888 1944#0 1944#1"/>
    </vehicle>
    <vehicle id="9" depart="0.45">
        <route edges="487#5 486#0 486#1 1502 27#1 27#2 27#3 27#4 27#5 27#6 27#7 1929#7 1929#8 1929#9 1939#0 972#5 1913#0 1913#1 1913#2 1913#3 1913#4 1914 1705 1926#0 1926#1 1926#2 1832#0 1832#1 1832#2 2021 316 766#0 766#1 1872 2008#0 2008#1 2008#2 12#0 12#1 -12#1"/>
    </vehicle>
    <vehicle id="10" depart="0.50">
        <route edges="1135 1059#0 1059#1 1136#0 1136#1 1136#2 1136#3 1136#4 1998#6 1006 2001#0 -7#2 1996#9 -716#3"/>
    </vehicle>
    <vehicle id="11" depart="0.55">
        <route edges="-938#1 -938#0 932#5 1073#1 1062#0 1062#1 1062#2 1062#3 1062#4 996#0 996#1 996#2 996#3 996#4 1068#0 82 1015 234 386#0 386#1 1889#0 1889#1 1892#0 1892#1 1921#0 1921#1 1921#2 1921#3 1917 1915 1140#0 1140#1 1140#2 1140#3 1956 2019#0 2019#1 2006 1495#0 1495#1 2027#0 2027#1 2027#2 1959#0 1959#1 1959#2 1957#0 1957#1 1872 2008#0 2008#1 2008#2 2008#3 1871#0 -158 -156#3 -156#2 156#2"/>
    </vehicle>
    <vehicle id="12" depart="0.60">
        <route edges="1143 1901#1 1148 1972#0 1972#1 1972#2 28#0 28#1 28#2"/>
    </vehicle>
    <vehicle id="13" depart="0.65">
        <route edges="-49 -936 -346#0 -347 -970#1 -970#0 4 1700 1704 1847 1707 1975 1904 1901#0 1901#1 1148 1972#0 1972#1 1972#2 28#0 28#1 28#2 1832#0 1832#1 1378"/>
    </vehicle>
    <vehicle id="14" depart="0.70">
        <route edges="-136 -510#1 -510#0 -1846#1 -1846#0 -129 1849 1471 1473#0 1473#1 1473#2 1473#3 1473#4 1473#5 1473#6 1891 1921#2 1921#3 1927#0 1927#1 1927#2 1484 1490 2018#0 2018#1 233 2002 1998#0 1998#1 1998#2 1998#3 1998#4 1998#5 1998#6 1006 2001#0 -7#2 1996#9 -716#3 -716#2 200#0 200#1"/>
    </vehicle>
    <vehicle id="15" depart="0.75">
        <route edges="1137#4 1938#2 1943#0 1943#1 1943#2 1943#3 1943#4 1943#5 1154#0 1154#1 1154#2 1154#3 1154#4 1002 1835 1004#0 1004#1 1004#2 1500#0 1500#1 1500#2 1500#3 1995 1994 -1165#4 -1165#3 -1165#2 -1165#1 -1165#0 -1087 -1003#3 -1003#2 1100 1099 1110#0 1110#1 -1110#1"/>
    </vehicle>
    <vehicle id="16" depart="0.80">
        <route edges="-674#1 674#1 683#1 1999#4 1999#5 1999#6 1999#7 1147 2003#0 2003#1 2003#2 1140#0 1140#1 1140#2 1140#3 1956 2019#0 2019#1 2006 1495#0 1495#1 2027#0 2027#1 2027#2 1959#0 1959#1 1959#2 1957#0 1957#1 1872 2008#0 2008#1 2008#2 2008#3 1873 1865 1159#0 -918#1 -2046#0 -2046#10 -2046#9 -2046#8 -2046#7"/>
    </vehicle>
    <vehicle id="17" depart="0.85">
        <route edges="237#1 320#5 320#6 1138#2 1170#0 1170#1 1709 970#0 970#1 347 81#0 81#1 1715#0 1715#1 1715#2 976#0 976#1 -1524#1 -1524#0 -1523#1 -1523#0 1522#5 -1527#4 -1527#3 -1527#2 -1527#1 -1527#0 1535 1561#0 1561#1"/>
    </vehicle>
    <vehicle id="18" depart="0.90">
        <route edges="119#0 -119#0 -120 962#0 962#1 117#1 1473#2 1473#3 1473#4 1473#5 1473#6 1891 1921#2 1921#3 1927#0 1927#1 1927#2 1484 1490 2018#0 2018#1 233 2002 1998#0 1998#1 1998#2 1998#3 1998#4 1998#5 331#0 1999#2 1999#3 1999#4 1999#5"/>
    </vehicle>
    <vehicle id="19" depart="0.95">
        <route edges="167#16 -167#16 -167#15 -167#14 772 1875#4 1875#5 1174#0 1928#2 2030#0 2030#1 2030#2 1834 1841#0 1841#1 1841#2 1836 1010#0 1014#1 214#0 214#1 214#2 -214#2"/>
    </vehicle>
    <vehicle id="20" depart="1.00">
        <route edges="124#1 1473#6 1891 1921#2 1921#3 1927#0 1927#1 1927#2 1484 1490 2018#0 2018#1 233 2002 1998#0 1998#1 1998#2 1998#3 320#0"/>
    </vehicle>
    <vehicle id="21" depart="1.05">
        <route edges="1926#1 1926#2 1832#0 1493#2 1840 26#0 26#1 1971#0 1971#1 1971#2 1144 372 1973#0 1973#1 1849 1472#0 1472#1 1709 970#0 970#1 347 81#0 81#1 1715#0 1715#1 1715#2 976#0 976#1 -1524#1 -1524#0 -1523#1 -1523#0 1522#5 -1527#4 -1527#3 -1527#2 -1527#1 1537#0 1537#1 -1558"/>
    </vehicle>
    <vehicle id="22" depart="1.10">
        <route edges="678#1 -678#1 -678#0 -535 -534#5 -534#4 -410#2 -410#1 1944#2 1944#3 1944#4 1157#0 -214#2 -214#1 -214#0"/>
    </vehicle>
    <vehicle id="23" depart="1.15">
        <route edges="237#1 -237#1 1938#1 1137#5 1895 1946 1924 282#0 282#1 282#2 282#3 282#4 282#5 282#6 1961#0 1961#1 488 1706#0 1706#1 1950 1479#0 1479#1 1941#0 1941#1 1941#2 1941#3 1942 1945#0 1945#1 1945#2 1945#3 1945#4 1945#5 -989#11 989#11"/>
    </vehicle>
    <vehicle id="24" depart="1.20">
        <route edges="1165#4 -1165#4 -1165#3 -1165#2 -1165#1 -1165#0 -1087 -1003#3 -1003#2 1100 1099"/>
    </vehicle>
    <vehicle id="25" depart="1.25">
        <route edges="351#0 351#1 -132#2 -132#1 -132#0 373#3 1700 909#0 909#1 1473#0 1473#1 1473#2 1473#3 1473#4 1473#5 1473#6 1891 1921#2 1921#3 1917 1915 1140#0 1140#1 1140#2 1140#3 1956 2019#0 2019#1 2006 1495#0 1495#1 2027#0 2027#1 2027#2 951#0 951#1 951#2 2036#0 2036#1 2036#2 2036#3 2028 2016 915#0 2007#3"/>
    </vehicle>
    <vehicle id="26" depart="1.30">
        <route edges="534#1 534#2 -1169#1 -1169#0 1944#3 1059#1 1136#0 1136#1 1136#2 1136#3 1136#4 1998#6 1006 2001#0 2001#1 2001#2 2001#3 -1174#6 -1174#5 -1174#4 -1174#3"/>
    </vehicle>
    <vehicle id="27" depart="1.35">
        <route edges="1959#0 1959#1 9#0 1870#1 1870#2 1966#0 1966#1 1153 2013 1954#0 1954#1 330#0 330#1 330#2 1150#0 1150#1 1150#2 385 1889#0 1889#1 1892#0 1892#1 1170#1 1709 970#0 970#1 347 346#0 936 49 1066 1042#0 1042#1 1042#2 1042#3 1042#4 1042#5 1042#6 1041#0 1041#1"/>
    </vehicle>
    <vehicle id="28" depart="1.40">
        <route edges="2026#0 2026#1 1153 2013 1965#0 1965#1 1965#2 1963#0 1963#1 1961#0 1961#1 488 1706#0 1706#1 1950 1479#0 1479#1 1941#0 1941#1 1941#2 1941#3 1942 1945#0 27#7 27#8 27#9 27#10"/>
    </vehicle>
    <vehicle id="29" depart="1.45">
        <route edges="-203#2 -205 83#3 -1829 1828 1487#0 1487#1 1487#2 1999#0 1999#1 1999#2 1999#3 1999#4 1999#5 320#1 320#2 1943#1 1943#2 686#0 -686#0"/>
    </vehicle>
    <vehicle id="30" depart="1.50">
        <route edges="1555#0 -1555#0 -1541 -1522#0 -1521 -1520 -976#0 40 1845 1697 -81#1 -81#0 -347 -970#1 -970#0 4 1700 909#0 909#1 1473#0 1473#1 1473#2 1473#3 1473#4 1473#5 1473#6 1891 1921#2 1921#3 1917 1915 1140#0 1140#1 1140#2 1140#3 1956 2019#0 2019#1 2006 1495#0 1495#1 2027#0 2027#1 2027#2 951#0 951#1 951#2 2036#0 2036#1 2036#2 2036#3 2028 2016 2012#0 2012#1 1079#2 1077 1875#3 -772 -167#13 -167#12 -167#11 -167#10 167#10"/>
    </vehicle>
    <vehicle id="31" depart="1.55">
        <route edges="-640#1 640#1 675#1 1999#5 1999#6 1999#7 1147 2003#0 2003#1 2003#2 1140#0 1140#1 1140#2 1140#3 1956 2019#0 2019#1 2006 1495#0 1495#1 2027#0 2027#1 2027#2 1959#0 1959#1 1959#2 1960"/>
    </vehicle>
    <vehicle id="32" depart="1.60">
        <route edges="514#10 514#11 -17#1 -17#0 1712#1 20#1 1953 1954#0 1954#1 1149 1998#0 1998#1 1998#2 1998#3 1998#4 1998#5 1998#6 208#0 208#1 208#2 1014#0 1014#1 214#0 214#1 -814#1 -814#0 814#0"/>
    </vehicle>
    <vehicle id="33" depart="1.65">
        <route edges="432#1 432#2 1#0 912#3 2010#0 2010#1 1962 1870#0 1870#1 1870#2 1966#0 1966#1 1153 2013 1954#0 1954#1 1149 1000 1013 1923#0 1919#1 1489#0"/>
    </vehicle>
    <vehicle id="34" depart="1.70">
        <route edges="-7#1 7#1 7#2 2001#1 2001#2 865#2 207#0 -207#0"/>
    </vehicle>
    <vehicle id="35" depart="1.75">
        <route edges="-904#8 -904#7 -206 -946#5 -207#1 -207#0 1996#3 1996#4 1996#5 1996#6 1996#7 1996#8 1996#9 1996#10 1487#0 1487#1 1487#2 1999#0 1999#1 1999#2 1999#3 1999#4 1999#5 1999#6 1999#7 1013 1923#0 1923#1 1005#0 1005#1 1151 1924 385 1889#0 1889#1 1892#0 1892#1 1170#1 1709 970#0 970#1 347 81#0 81#1 1715#0 1715#1 1715#2 976#0 976#1 -1524#1 -1524#0 -1523#1 -1523#0 1522#5 -1527#4 -1527#3 -1527#2 -1527#1 1537#0 1537#1 1537#2 1537#3 1530#5 1531"/>
    </vehicle>
    <vehicle id="36" depart="1.80">
        <route edges="88#3 931#2 931#3 1075 -1066 -49 -936 -346#0 -347 -970#1 -970#0 4 1700 1704 1847 1707 1975 1904 1901#0 1901#1 1902#0 1971#2 1144"/>
    </vehicle>
    <vehicle id="37" depart="1.85">
        <route edges="-514#6 -514#5 -514#4 106#2 966#0 966#1"/>
    </vehicle>
    <vehicle id="38" depart="1.90">
        <route edges="-1014#1 1010#1 1061#0 1061#1 1061#2 1061#3 1137#0 1137#1 1137#2 1137#3 1137#4 1137#5 1895 1946 1924 385 1889#0 1889#1 1890 1893#0 384#0"/>
    </vehicle>
    <vehicle id="39" depart="1.95">
        <route edges="1010#1 1061#0 1061#1 1061#2 1061#3 1137#0 1137#1 1137#2 1137#3 1137#4 1137#5 1895 1946 1001 1920 1880 48 1016 1068#2 1068#3 85 1073#0 1073#1 1062#0 1062#1 1062#2 1062#3 1062#4 996#0 996#1 1045 929#0 929#1 1046#4"/>
    </vehicle>
    <vehicle id="40" depart="2.00">
        <route edges="-534#2 534#2 -1169#1 -530 -410#1 -410#0 1138#1 1138#2 1170#0 1170#1 1709 970#0 970#1 347 346#0 936 49 1066 1042#0 1042#1 1042#2 1042#3 1042#4 1042#5 1042#6 1042#7 1042#8"/>
    </vehicle>
    <vehicle id="41" depart="2.05">
        <route edges="2042#1 2017 2013 1965#0 1965#1 1965#2 1963#0 1963#1 1961#0 1961#1 488 1706#0 1706#1 1950 1682 1912 1913#0 1913#1 1913#2 1687 1897#0 910 1482"/>
    </vehicle>
    <vehicle id="42" depart="2.10">
        <route edges="1061#2 1136#1 1136#2 1136#3 1999#3 1999#4 1999#5 1999#6 1999#7 1147 2003#0 2003#1 2003#2 1139"/>
    </vehicle>
    <vehicle id="43" depart="2.15">
        <route edges="-904#6 904#6 -206 -946#5 -207#1 -207#0 1996#3 1996#4 1996#5 1996#6 1996#7 1996#8 1996#9 1996#10 1487#0 1487#1 1487#2 1999#0 1999#1 1999#2 1999#3 1999#4 1999#5 320#1 320#2 1943#1 1943#2 686#0 686#1 686#2 685#2"/>
    </vehicle>
    <vehicle id="44" depart="2.20">
        <route edges="-1523#0 1523#0 1523#1 1524#0 1524#1 -976#1 -976#0 40 1845 1697 -81#1 -81#0 -347 -970#1 -970#0 4 1700 909#0 909#1 1473#0 958 -955#1 -955#0 -956#1 -514#17 -514#16 -514#15 -514#14 21 1973#1"/>
    </vehicle>
    <vehicle id="45" depart="2.25">
        <route edges="-405 1715#1 1715#2 40 1845 1697 -81#1 933 936 49 1020 87#0 87#1 87#2 87#3 1068#0 82 1015 234"/>
    </vehicle>
    <vehicle id="46" depart="2.30">
        <route edges="2046#2 2044#1 2037 1171 1173 2038 1478#0 1478#1 1478#2 1478#3 1135 1138#0 410#0 410#1 410#2 534#4 534#5 535 678#0 678#1 -678#1"/>
    </vehicle>
    <vehicle id="47" depart="2.35">
        <route edges="520 1972#2 1833 1819#0 1819#1 1819#2 1819#3 2042#0 2042#1 2017 2013 1954#0 1954#1 1149 1998#0 1998#1 1998#2 1998#3 1998#4 1998#5 331#0 1999#2 1999#3 -683#1 -674#1 674#1"/>
    </vehicle>
    <vehicle id="48" depart="2.40">
        <route edges="2015#0 2015#1 2010#1 1962 1869#0 1869#1 1958 315 973 2023 2024#0 2024#1 1840 26#0 26#1 1971#0 1971#1 1971#2 1144 372 1973#0 1973#1 1849 1472#0 1472#1 1714"/>
    </vehicle>
    <vehicle id="49" depart="2.45">
        <route edges="1103#0 1103#1 1119#2 1081 1080 1003#0 1003#1 1003#2 1003#3 1087 1165#0 1165#1 1165#2 1165#3 1165#4 1827 389 919#0 919#1 919#2 919#3 919#4 919#5 1009 1839 1835 1007#0 1007#1 1007#2 1007#3 2040#0 2040#1 2040#2 2040#3 2040#4 -1174#1 -1174#0 1079#0 2007#1"/>
    </vehicle>
    <vehicle id="50" depart="2.50">
        <route edges="1119#1 1119#2 1081 1080 1003#0 1003#1 1003#2 1003#3 1087 1165#0 1165#1 1165#2 1165#3 1165#4 1827 389 919#0 919#1 919#2 919#3 919#4 919#5 1009 1839 1835 1007#0 1007#1 1007#2 1007#3 2040#0 2040#1 2040#2 2040#3 2040#4 2040#5 2040#6 1978 1931#0 2036#3 2028 2015#0 2015#1 2015#2 2008#0 -432#2 433#0 433#1 163#1 163#2"/>
    </vehicle>
    <vehicle id="51" depart="2.55">
        <route edges="-1529#0 1527#0 1527#1 1527#2 1527#3 1527#4 -1522#5 1523#0 1523#1 1524#0 1524#1 -976#1 -976#0 40 1845 1697 -81#1 -81#0 -347 -970#1 -970#0 4 1700 909#0 909#1 1473#0 1473#1 1473#2 1473#3 1473#4 1473#5 1473#6 1891 1921#2 1921#3 1927#0 1927#1 1927#2 1486 1925 1152#0 1152#1 1152#2 1943#0 1943#1 1943#2 1943#3 1943#4 1943#5 1155#0 1061#2 1061#3 1137#0 1137#1 -635 -645#0 619#5 -619#5"/>
    </vehicle>
    <vehicle id="52" depart="2.60">
        <route edges="1529#2 -1530#5 -1537#3 -1537#2 -1537#1 -1537#0 1527#1 1527#2 1527#3 1527#4 -1522#5 1523#0 1523#1 1524#0 1524#1 -976#1 -976#0 40 1845 1697 -81#1 -81#0 -347 -970#1 969 1800#1 1677 972#0 972#1 972#2 972#3 1479#1 1941#0 1941#1 1941#2 1941#3 1942 1945#0 1945#1 1945#2 1945#3 -151#4 -151#3 -148 148"/>
    </vehicle>
    <vehicle id="53" depart="2.65">
        <route edges="-215#2 -215#1 1900#7 208#2 1002 1835 1004#0 1004#1 1004#2 1500#0 1500#1 1500#2 1500#3 1995 1994 -1165#4 -1165#3 -1165#2 -1165#1 -1165#0 -1087 -1003#3 -1003#2 1003#2"/>
    </vehicle>
    <vehicle id="54" depart="2.70">
        <route edges="-167#20 167#20 776#0 777 2033#2 2033#3 2033#4 1156#0 1156#1 1156#2 1871#0 1871#1 1858 1867#0 1867#1 1867#2 2005 1168 1476#0 1476#1 1476#2 1476#3 1476#4 1807#0 1807#1 1807#2 1703#0 -253#1 -253#0 485#0 485#1"/>
    </vehicle>
    <vehicle id="55" depart="2.75">
        <route edges="-501#0 1837#2 1469#0 1469#1 1711 1929#0 309#0 309#1 -27#19 -1785#2 1785#2"/>
    </vehicle>
    <vehicle id="56" depart="2.80">
        <route edges="-1046#2 1047 1042#6 1042#7 1042#8 996#1 996#2"/>
    </vehicle>
    <vehicle id="57" depart="2.85">
        <route edges="-1046#1 1042#5 1042#6 1042#7 1042#8 996#1 996#2 996#3 996#4 1068#0 82 1015 234 386#0 386#1 1889#0 1889#1 1892#0 1892#1 1921#0 1921#1 1921#2 1921#3 1917 1915 1140#0 1140#1 1140#2 1140#3 1956 2019#0 2019#1 2006 1495#0 1495#1 2027#0 2027#1 2027#2 1959#0 1959#1 1959#2 1957#0 1957#1 1872 913 2011#0 2011#1"/>
    </vehicle>
    <vehicle id="58" depart="2.90">
        <route edges="894#1 -894#1 -894#0 2027#2 951#0 951#1 11#2 1979#1 1966#0 1966#1 1153 2013 1954#0 1954#1 330#0 330#1 330#2 1150#0 1150#1 1150#2 385 1889#0 1889#1 1892#0 1892#1 1170#1 1709 970#0 970#1 347 81#0 81#1 1715#0 1715#1 1715#2 976#0 976#1 976#2 1721 -1721"/>
    </vehicle>
    <vehicle id="59" depart="2.95">
        <route edges="1502 27#1 27#2 27#3 27#4 27#5 27#6 27#7 1929#7 1929#8 1929#9 1939#0 1939#1 1939#2 1939#3 1939#4 1899 1930#0 1975 1904 1901#0 1901#1 1902#0 1902#1 1902#2 1902#3 1902#4 1902#5 1902#6 1058 2025 2027#0 2027#1 2027#2 951#0 951#1 951#2 1996#0 1996#1 1996#2 1996#3 1996#4 878#0 878#1 -947#6 947#6"/>
    </vehicle>
    <vehicle id="60" depart="3.00">
        <route edges="83#7 1494 1818#0 1818#1 2020#0 2020#1 2020#2 2020#3 2020#4 2020#5 2020#6 28#0 28#1 1837#1 1837#2 1469#0 1469#1 1711 1929#0 1929#1 -22#8 -22#7 -22#6 -22#5 -22#4 -27#14"/>
    </vehicle>
    <vehicle id="61" depart="3.05">
        <route edges="-934 1069#1 1043#0 1043#1 -1019 86 1063#0 1046#0 1042#5 1042#6 1041#0 1041#1"/>
    </vehicle>
    <vehicle id="62" depart="3.10">
        <route edges="411#0 177#0 175 949#3 949#4 952#3 952#4 952#5 952#6 2039#0 2039#1 2039#2 2001#2 2001#3 2001#4 1979#0 1979#1 1966#0 1966#1 1153 2013 1965#0 1140#3 1956"/>
    </vehicle>
    <vehicle id="63" depart="3.15">
        <route edges="2033#1 2033#2 1875#1 1875#2 1875#3 1875#4 2007#0 2007#1 2007#2 915#1 915#2 915#3 1980#0 1980#1 1996#1 1996#2 1996#3 1996#4 878#0 947#1 947#2 -947#2"/>
    </vehicle>
    <vehicle id="64" depart="3.20">
        <route edges="-258#5 258#5 1710#1 1710#2 990#0 990#1 990#2 1708 1480 1868 2014#0 2014#1 2014#2 2014#3 2014#4 1865 1159#0 1159#1 -1499 2033#0 949#0 949#1 -172#1 -765#3 -765#2 -765#1"/>
    </vehicle>
    <vehicle id="65" depart="3.25">
        <route edges="946#6 946#7 1186 -207#0 1996#3 1996#4 1996#5 1996#6 1996#7 1996#8 1996#9 1996#10 1488#0 1488#1 1004#0 1004#1 1004#2 1500#0 1500#1 1500#2 1500#3 1995 1994 -1165#4 -1165#3 -1165#2 -1165#1 -1165#0 -1087 1087"/>
    </vehicle>
    <vehicle id="66" depart="3.30">
        <route edges="1155#0 1061#2 1136#1 1136#2 1136#3 1136#4 1998#6 1006 2001#0 -7#2 1996#9 -716#3"/>
    </vehicle>
    <vehicle id="67" depart="3.35">
        <route edges="-997#1 997#1 997#2 1064 -49 -936 -346#0 -347 -970#1 -970#0 4 1700 1704 1847 1707 1975 1904 1901#0 1901#1 1148 1972#0 1972#1 1972#2 28#0 28#1 28#2 1832#0 1832#1 1832#2 2021 316 766#0 -160#1 -160#0 433#4"/>
    </vehicle>
    <vehicle id="68" depart="3.40">
        <route edges="-1014#1 1010#1 1061#0 1061#1 1061#2 1061#3 1137#0 1137#1 1137#2 1137#3 1137#4 1137#5 1895 1946 1001 1920 1880 48 1016 1068#2 1068#3 85 1073#0 1073#1 1062#0 1062#1 1062#2 1062#3 1062#4 996#0 996#1 1045 929#0 929#1 -929#1"/>
    </vehicle>
    <vehicle id="69" depart="3.45">
        <route edges="1902#3 1819#3 2042#0 2042#1 2017 2013 1954#0 1954#1 1149 1998#0 1998#1 1998#2 1998#3 1998#4 1998#5 331#0 331#1 331#2 -887"/>
    </vehicle>
    <vehicle id="70" depart="3.50">
        <route edges="-1623#0 947#4 947#5 947#6 -878#1 -878#0 1996#5 1996#6 1996#7 1996#8 1996#9 1996#10 1487#0 1487#1 1487#2 1999#0 1999#1 1999#2 1999#3 1999#4 1999#5 320#1 320#2 320#3 1137#4 1938#2 1940#0"/>
    </vehicle>
    <vehicle id="71" depart="3.55">
        <route edges="1800#1 1677 972#0 972#1 972#2 972#3 972#4 1939#1 1939#2 1939#3 1939#4 1899 1930#0 1930#1 1712#0 1712#1 1712#2 1712#3 1964#0 1964#1 1964#2 1964#3 1927#0 1150#2 282#0 282#1 -99#1 97#0 97#1 967#0 -965 965"/>
    </vehicle>
    <vehicle id="72" depart="3.60">
        <route edges="1060 1154#1 1154#2 1154#3 1011#1 1999#0 1999#1 1999#2 1999#3 1999#4 1999#5 1999#6 1999#7 1147 2003#0 2003#1 2003#2 1140#0 1140#1 1140#2 1965#1 1965#2 1963#0 1963#1 1961#0 1961#1 488 1706#0 1706#1 1949#0 1949#1 1949#2 1949#3"/>
    </vehicle>
    <vehicle id="73" depart="3.65">
        <route edges="1943#0 320#3 1137#4 1137#5 1895 1946 1924 282#0 282#1 -99#1 97#0 97#1 967#0 -965 -966#0 -106#2 -514#3 -514#2 -514#1 -514#0 -955#1 -955#0 -956#1 -514#17 -514#16 -514#15 -514#14 514#14"/>
    </vehicle>
    <vehicle id="74" depart="3.70">
        <route edges="-261#1 -261#0 298#4 298#5 298#6 281#0 281#1 281#2 373#0 373#1 373#2 373#3 1700 909#0 1472#1 1709 970#0 970#1 347 346#0 936 49 1020 87#0 87#1 87#2 87#3 1068#0 1068#1"/>
    </vehicle>
    <vehicle id="75" depart="3.75">
        <route edges="-1916#1 1916#1 1940#1 1940#2 1998#4 1998#5 1998#6 1006 2001#0 2001#1 1466#0 1466#1 1466#2 1466#3 1466#4 1466#5 2031#0 903#2 993#0 993#1 -196"/>
    </vehicle>
    <vehicle id="76" depart="3.80">
        <route edges="2046#7 2046#8 2046#9 2046#10 2046#0 918#1 1159#1 2034 2043 2037 1171 1173 2038 1478#0 1823#0 1823#1 1500#3 1995 1994 -1165#4 -1165#3 -1165#2 -1165#1 -1165#0 -1087 -1003#3 -1003#2 -1003#1 -1003#0 -379 -45 380#0 380#1 380#2 1134 1052 1050#0 1050#1 1124#0 1124#1 -1124#1"/>
    </vehicle>
    <vehicle id="77" depart="3.85">
        <route edges="1497#1 952#1 952#2 952#3 952#4 1464 2030#2 1834 1841#0 1841#1 1841#2 1836 1010#0 1010#1 1061#0 1061#1 1061#2 1061#3 1137#0 1137#1 1137#2 238 -553#0"/>
    </vehicle>
    <vehicle id="78" depart="3.90">
        <route edges="2022#0 2022#1 2027#1 2027#2 951#0 951#1 951#2 1996#0 1996#1 1996#2 1996#3 1996#4 1996#5 1996#6 1996#7 1996#8 1996#9 1996#10 1487#0 1487#1 208#1 208#2 1014#0 1010#1 1061#0 -841#7 -841#6 -841#5 -841#4 -841#3 -841#2 -841#1 841#1"/>
    </vehicle>
    <vehicle id="79" depart="3.95">
        <route edges="-889#1 -889#0 1154#2 1154#3 1154#4 1002 1835 1007#0 1007#1 1007#2 1007#3 2040#0 2040#1 2040#2 2040#3 2040#4 2040#5 2040#6 1978 1931#0 1931#1 1931#2 1931#3 1870#0"/>
    </vehicle>
    <vehicle id="80" depart="4.00">
        <route edges="1091 -1110#4 -1110#3 -1110#2 -1110#1 -1110#0 -1099 -1100 1003#2 1003#3 1087 1165#0 1165#1 1165#2 1165#3 1165#4 1827 389 919#0 919#1 919#2 919#3 919#4 919#5 1822 1010#0 1010#1 1061#0 1061#1 1061#2 1061#3 1137#0 1137#1 1137#2 1137#3 1137#4 1137#5 1895 1946 1924 385 1889#0 1889#1 1892#0 1892#1 1170#1 1709 970#0 970#1 347 81#0 81#1 1715#0 1715#1 1715#2 976#0 976#1"/>
    </vehicle>
    <vehicle id="81" depart="4.05">
        <route edges="1978 915#3 1980#0 1980#1 1996#1 1996#2 1996#3 1996#4 1996#5 1996#6 1996#7 1996#8 1996#9 1996#10 1487#0 1487#1 1487#2 1999#0 1999#1 331#1 331#2 331#3 331#4 1155#0 1155#1 -815 223#3 223#4 222 -218#2"/>
    </vehicle>
    <vehicle id="82" depart="4.10">
        <route edges="113#3 514#16 514#17 956#1 955#0 955#1 514#0 117#0 117#1 1473#2 1473#3 1473#4 1473#5 1473#6 1891 1921#2 1921#3 1927#0 1927#1 1927#2 1484 1490 2018#0 2018#1 233 2002 1998#0 1998#1 1998#2 1998#3 1998#4 1998#5 331#0 331#1 1900#6 215#1 -215#1"/>
    </vehicle>
    <vehicle id="83" depart="4.15">
        <route edges="11#1 11#2 1979#1 1966#0 1966#1 1153 2013 1954#0 1954#1 1149 1000 1013 1923#0 1923#1 1005#0 1005#1 1151 1001 1920 1880 48 1016 1068#2 1068#3 85 1073#0 -932#5 -932#4 -935#1 43#2 -43#2"/>
    </vehicle>
    <vehicle id="84" depart="4.20">
        <route edges="-9#1 1870#1 1952 951#1 951#2 1996#0 1996#1 1996#2 1996#3 1996#4 1996#5 1996#6 1996#7 1996#8 1996#9 1996#10 1487#0 1487#1 208#1 208#2 1014#0 1010#1 1011#0"/>
    </vehicle>
    <vehicle id="85" depart="4.25">
        <route edges="1473#7 1473#8 1473#9 1893#0 1893#1 1893#2 1893#3 1888 1944#0 1944#1 1944#2 1944#3 1944#4 1145 1138#0"/>
    </vehicle>
    <vehicle id="86" depart="4.30">
        <route edges="-1008#1 -1008#0 -1993 1003#0 1003#1 1003#2 1003#3 1087 1165#0 1165#1 1165#2 1165#3 1165#4 1827 389 919#0 919#1 919#2 919#3 919#4 919#5 1822 1010#0 1010#1 1061#0 1061#1 1061#2 1061#3 1137#0 1137#1 1137#2 1137#3 1137#4 1938#2 1943#0 1943#1 1943#2 686#0 1644 523#1"/>
    </vehicle>
    <vehicle id="87" depart="4.35">
        <route edges="131 -132#1 -132#0 373#3 1700 909#0 909#1 1473#0 1473#1 1473#2 1473#3 1473#4 1473#5 1473#6 1891 1921#2 1921#3 1917 1915 1140#0"/>
    </vehicle>
    <vehicle id="88" depart="4.40">
        <route edges="-2046#8 2046#8 2046#9 2046#10 2046#0 918#1 1875#0 2033#3 2033#4 1156#0 1156#1 912#1 912#2 912#3 2010#0 2010#1 1962 1870#0 1870#1 1870#2 1966#0 1966#1 1153 2013 1954#0 1954#1 1149 1000 1013 1923#0"/>
    </vehicle>
    <vehicle id="89" depart="4.45">
        <route edges="21 1973#1 1849 1471 1473#0 1473#1 1473#2 1473#3 1473#4 1473#5 1473#6 1891 1921#2 1921#3 1927#0 1927#1 1927#2 1484 1490 2018#0 2018#1 233 2002 1998#0 1998#1 1998#2 1998#3 1998#4 1998#5 1998#6 1006 2001#0 2001#1 -864#1"/>
    </vehicle>
    <vehicle id="90" depart="4.50">
        <route edges="-95#0 1964#1 1964#2 1964#3 1927#0 1927#1 1927#2 1486 1925 1152#0 1152#1 1152#2 1943#0 1943#1 1943#2 1943#3 1943#4 1943#5 1154#0 1154#1 1154#2 1154#3 1154#4 1002 1835 1004#0 1004#1 1004#2 1500#0 1500#1 1500#2 1500#3 1995 1994 -1165#4 -1165#3 -1165#2 -1165#1 -1165#0 -1087 -1003#3 -1003#2 1100 1099 1110#0 1110#1 1110#2 1109 1108 1107#0 1107#1 -1107#1"/>
    </vehicle>
    <vehicle id="91" depart="4.55">
        <route edges="1898 1922#0 1939#4 1899 1930#0 1975 1904 1901#0 1901#1 1902#0 1902#1 1902#2 1902#3 1902#4 1902#5 1902#6 1058 2025 2027#0 2027#1 2027#2 951#0 951#1 951#2 1996#0 1996#1 1996#2 1996#3 1996#4 1996#5 1996#6 1996#7 2039#2 -864#1 -864#0 203#3"/>
    </vehicle>
    <vehicle id="92" depart="4.60">
        <route edges="1929#8 1929#9 1939#0 972#5 1913#0 1913#1 1913#2 1913#3 1913#4 1914 1705 1926#0 1926#1 1926#2 1831#0 -301#1 895#0 895#1 -895#1"/>
    </vehicle>
    <vehicle id="93" depart="4.65">
        <route edges="639#0 -639#0 1900#2 1900#3 1900#4 1136#3 1136#4 1998#6 1006 1829 83#4 83#5 -226"/>
    </vehicle>
    <vehicle id="94" depart="4.70">
        <route edges="-967#3 968 124#1 1473#6 1891 1921#2 1921#3 1917 1915 1140#0 1140#1 1140#2 1140#3 1956 2019#0 2019#1 2006 1495#0 1495#1 2027#0 2027#1 2027#2 1959#0 1959#1 1959#2 1957#0 1957#1 1872 913 2010#0 2010#1"/>
    </vehicle>
    <vehicle id="95" depart="4.75">
        <route edges="-383 -1916#0 1923#0 1923#1 1005#0 1005#1 1151 1924 385 1889#0 1889#1 1892#0 1892#1 1170#1 1709 970#0 970#1 347 81#0 81#1 1715#0 1715#1 449 -341#0 341#0"/>
    </vehicle>
    <vehicle id="96" depart="4.80">
        <route edges="1943#2 1943#3 1943#4 1943#5 1155#0 1061#2 1061#3 1137#0 1137#1 1137#2 1137#3 1137#4 1137#5 1895 1946 1924 282#0 282#1 -99#1 97#0 97#1 967#0 -965 -966#0 -106#2 -514#3 -514#2 -514#1"/>
    </vehicle>
    <vehicle id="97" depart="4.85">
        <route edges="-1549 -1528#1 1540 1527#4 -1522#5 1523#0 1523#1 1524#0 1524#1 -976#1 -976#0 40 1845 1697 -81#1 -81#0 -347 -970#1 -970#0 4 1700 909#0 909#1 1473#0 1473#1 1473#2 1473#3 1473#4 1473#5 1473#6 1891 1921#2 1921#3 1927#0 1927#1 1927#2 1486 1925 1152#0 1152#1 1152#2 1943#0 1943#1 1943#2 1943#3 1943#4 1943#5 1154#0 1154#1 1154#2 1154#3 1154#4 1002 1835 1004#0 1004#1 1004#2 1500#0 1500#1 1500#2 1500#3 1995 1994 -1165#4 -1165#3 -1165#2 -1165#1 -1165#0 -1087 -1003#3 -1003#2 1100 1099 1110#0 1110#1 1110#2 1110#3 1110#4 1090 1092#1"/>
    </vehicle>
    <vehicle id="98" depart="4.90">
        <route edges="-232#1 1489#1 1150#1 1150#2 385 1889#0 1889#1 1892#0 1892#1 1170#1 1709 970#0 970#1 347 81#0 81#1 1715#0 1715#1 1715#2 976#0 976#1 -1524#1 -1524#0 -1526 -1522#3 -1554#1"/>
    </vehicle>
    <vehicle id="99" depart="4.95">
        <route edges="-1527#0 1527#0 1527#1 1527#2 1527#3 1527#4 -1522#5 1523#0 1523#1 1524#0 1524#1 -976#1 -976#0 40 1845 1697 -81#1 -81#0 -347 -970#1 -970#0 4 1700 909#0 909#1 1473#0 1473#1 1473#2 1473#3 1473#4 1473#5 1473#6 1891 1921#2 1921#3 1917 1915 1140#0 1140#1 1140#2 1140#3 1956 2019#0 2019#1 2006 1495#0 1495#1 2027#0 2027#1 2027#2 1959#0 1959#1 1959#2 1957#0 1957#1 1872 2008#0 2008#1 2008#2 2008#3 1873 1865 1159#0 1159#1 2034 306#0"/>
    </vehicle>
    <vehicle id="100" depart="5.00">
        <route edges="233 2002 1000 1013 1923#0 1923#1 1005#0 1005#1 1151 1924 282#0 282#1"/>
    </vehicle>
    <vehicle id="101" depart="5.05">
        <route edges="1858 1867#0 1867#1 1867#2 2005 1168 1493#0 1493#1 1832#1 1832#2 2021 316 766#0 766#1 1874 1962 1870#0 1870#1 1952 951#1 951#2 1996#0 1996#1"/>
    </vehicle>
    <vehicle id="102" depart="5.10">
        <route edges="-340#1 340#1 343 1715#1 1715#2 40 1845 1697 -81#1 -81#0 -347 -970#1 -970#0 4 1700 909#0 909#1 1473#0 1473#1 1473#2 1473#3 1473#4 1473#5 1473#6 1891 1921#2 1921#3 1927#0 1927#1 1927#2 1484 1490 2018#0 2018#1 233 2002 1998#0 1998#1 1998#2 1998#3 1998#4 1998#5 1998#6 1006 2001#0 2001#1 1466#0 1466#1 1466#2 1466#3 1463 2040#2 -904#10"/>
    </vehicle>
    <vehicle id="103" depart="5.15">
        <route edges="962#1 117#1 1473#2 1473#3 1473#4 1473#5 1473#6 1891 1921#2 1921#3 1927#0 1927#1 1927#2 1484 1490 2018#0 2018#1 233 2002 1998#0 1998#1 1998#2 1998#3 1998#4 1998#5 331#0 331#1 1900#6 215#1 -215#1"/>
    </vehicle>
    <vehicle id="104" depart="5.20">
        <route edges="-1561#0 -1535 1527#0 1527#1 1527#2 1527#3 1527#4 -1522#5 1523#0 1523#1 1524#0 1524#1 976#2 -976#2"/>
    </vehicle>
    <vehicle id="105" depart="5.25">
        <route edges="-167#22 -167#21 776#0 777 2033#2 2033#3 2033#4 1156#0 1156#1 912#1 912#2 912#3 2010#0 2010#1 1962 1869#0 1869#1 1958 315 973 2023 2024#0 2024#1 1840 26#0 26#1 1971#0 1971#1 1971#2 1143 1901#1 1148 1972#0 19#0 18 -18"/>
    </vehicle>
    <vehicle id="106" depart="5.30">
        <route edges="286#0 298#6 281#0 281#1 281#2 373#0 373#1 373#2 373#3 1700 909#0 1472#1 1709 970#0 970#1 347 346#0 936 49 1020 87#0 87#1 87#2 87#3 1068#0 82 1015 234"/>
    </vehicle>
    <vehicle id="107" depart="5.35">
        <route edges="949#2 -175 -177#0 -411#0 -949#0 2033#1 2033#2 2033#3 2033#4 1156#0 1156#1 912#1 -12#0 2008#3"/>
    </vehicle>
    <vehicle id="108" depart="5.40">