<?xml version="1.0"?>
<trips>
    <trip id="0" depart="0.0" from="2039#0" to="-645#2" />
    <trip id="1" depart="0.05" from="1028" to="1998#2" />
    <trip id="2" depart="0.1" from="433#4" to="-391" />
    <trip id="3" depart="0.15" from="1712#1" to="1010#1" />
    <trip id="4" depart="0.2" from="-949#2" to="-878#0" />
    <trip id="5" depart="0.25" from="-904#9" to="913" />
    <trip id="6" depart="0.3" from="-1098#1" to="-914#4" />
    <trip id="7" depart="0.35" from="379" to="1831#2" />
    <trip id="8" depart="0.4" from="-976#2" to="1944#1" />
    <trip id="9" depart="0.45" from="487#5" to="-12#1" />
    <trip id="10" depart="0.5" from="1135" to="-716#3" />
    <trip id="11" depart="0.55" from="-938#1" to="156#2" />
    <trip id="12" depart="0.6" from="1143" to="28#2" />
    <trip id="13" depart="0.65" from="-49" to="1378" />
    <trip id="14" depart="0.7" from="-136" to="200#1" />
    <trip id="15" depart="0.75" from="1137#4" to="-1110#1" />
    <trip id="16" depart="0.8" from="-674#1" to="-2046#7" />
    <trip id="17" depart="0.85" from="237#1" to="1561#1" />
    <trip id="18" depart="0.9" from="119#0" to="1999#5" />
    <trip id="19" depart="0.95" from="167#16" to="-214#2" />
    <trip id="20" depart="1.0" from="124#1" to="320#0" />
    <trip id="21" depart="1.05" from="1926#1" to="-1558" />
    <trip id="22" depart="1.1" from="678#1" to="-214#0" />
    <trip id="23" depart="1.15" from="237#1" to="989#11" />
    <trip id="24" depart="1.2" from="1165#4" to="1099" />
    <trip id="25" depart="1.25" from="351#0" to="2007#3" />
    <trip id="26" depart="1.3" from="534#1" to="-1174#3" />
    <trip id="27" depart="1.35" from="1959#0" to="1041#1" />
    <trip id="28" depart="1.4" from="2026#0" to="27#10" />
    <trip id="29" depart="1.45" from="-203#2" to="-686#0" />
    <trip id="30" depart="1.5" from="1555#0" to="167#10" />
    <trip id="31" depart="1.55" from="-640#1" to="1960" />
    <trip id="32" depart="1.6" from="514#10" to="814#0" />
    <trip id="33" depart="1.65" from="432#1" to="1489#0" />
    <trip id="34" depart="1.7" from="-7#1" to="-207#0" />
    <trip id="35" depart="1.75" from="-904#8" to="1531" />
    <trip id="36" depart="1.8" from="88#3" to="1144" />
    <trip id="37" depart="1.85" from="-514#6" to="966#1" />
    <trip id="38" depart="1.9" from="-1014#1" to="384#0" />
    <trip id="39" depart="1.95" from="1010#1" to="1046#4" />
    <trip id="40" depart="2.0" from="-534#2" to="1042#8" />
    <trip id="41" depart="2.05" from="2042#1" to="1482" />
    <trip id="42" depart="2.1" from="1061#2" to="1139" />
    <trip id="43" depart="2.15" from="-904#6" to="685#2" />
    <trip id="44" depart="2.2" from="-1523#0" to="1973#1" />
    <trip id="45" depart="2.25" from="-405" to="234" />
    <trip id="46" depart="2.3" from="2046#2" to="-678#1" />
    <trip id="47" depart="2.35" from="520" to="674#1" />
    <trip id="48" depart="2.4" from="2015#0" to="1714" />
    <trip id="49" depart="2.45" from="1103#0" to="2007#1" />
    <trip id="50" depart="2.5" from="1119#1" to="163#2" />
    <trip id="51" depart="2.55" from="-1529#0" to="-619#5" />
    <trip id="52" depart="2.6" from="1529#2" to="148" />
    <trip id="53" depart="2.65" from="-215#2" to="1003#2" />
    <trip id="54" depart="2.7" from="-167#20" to="485#1" />
    <trip id="55" depart="2.75" from="-501#0" to="1785#2" />
    <trip id="56" depart="2.8" from="-1046#2" to="996#2" />
    <trip id="57" depart="2.85" from="-1046#1" to="2011#1" />
    <trip id="58" depart="2.9" from="894#1" to="-1721" />
    <trip id="59" depart="2.95" from="1502" to="947#6" />
    <trip id="60" depart="3.0" from="83#7" to="-27#14" />
    <trip id="61" depart="3.05" from="-934" to="1041#1" />
    <trip id="62" depart="3.1" from="411#0" to="1956" />
    <trip id="63" depart="3.15" from="2033#1" to="-947#2" />
    <trip id="64" depart="3.2" from="-258#5" to="-765#1" />
    <trip id="65" depart="3.25" from="946#6" to="1087" />
    <trip id="66" depart="3.3" from="1155#0" to="-716#3" />
    <trip id="67" depart="3.35" from="-997#1" to="433#4" />
    <trip id="68" depart="3.4" from="-1014#1" to="-929#1" />
    <trip id="69" depart="3.45" from="1902#3" to="-887" />
    <trip id="70" depart="3.5" from="-1623#0" to="1940#0" />
    <trip id="71" depart="3.55" from="1800#1" to="965" />
    <trip id="72" depart="3.6" from="1060" to="1949#3" />
    <trip id="73" depart="3.65" from="1943#0" to="514#14" />
    <trip id="74" depart="3.7" from="-261#1" to="1068#1" />
    <trip id="75" depart="3.75" from="-1916#1" to="-196" />
    <trip id="76" depart="3.8" from="2046#7" to="-1124#1" />
    <trip id="77" depart="3.85" from="1497#1" to="-553#0" />
    <trip id="78" depart="3.9" from="2022#0" to="841#1" />
    <trip id="79" depart="3.95" from="-889#1" to="1870#0" />
    <trip id="80" depart="4.0" from="1091" to="976#1" />
    <trip id="81" depart="4.05" from="1978" to="-218#2" />
    <trip id="82" depart="4.1" from="113#3" to="-215#1" />
    <trip id="83" depart="4.15" from="11#1" to="-43#2" />
    <trip id="84" depart="4.2" from="-9#1" to="1011#0" />
    <trip id="85" depart="4.25" from="1473#7" to="1138#0" />
    <trip id="86" depart="4.3" from="-1008#1" to="523#1" />
    <trip id="87" depart="4.35" from="131" to="1140#0" />
    <trip id="88" depart="4.4" from="-2046#8" to="1923#0" />
    <trip id="89" depart="4.45" from="21" to="-864#1" />
    <trip id="90" depart="4.5" from="-95#0" to="-1107#1" />
    <trip id="91" depart="4.55" from="1898" to="203#3" />
    <trip id="92" depart="4.6" from="1929#8" to="-895#1" />
    <trip id="93" depart="4.65" from="639#0" to="-226" />
    <trip id="94" depart="4.7" from="-967#3" to="2010#1" />
    <trip id="95" depart="4.75" from="-383" to="341#0" />
    <trip id="96" depart="4.8" from="1943#2" to="-514#1" />
    <trip id="97" depart="4.85" from="-1549" to="1092#1" />
    <trip id="98" depart="4.9" from="-232#1" to="-1554#1" />
    <trip id="99" depart="4.95" from="-1527#0" to="306#0" />
    <trip id="100" depart="5.0" from="233" to="282#1" />
    <trip id="101" depart="5.05" from="1858" to="1996#1" />
    <trip id="102" depart="5.1" from="-340#1" to="-904#10" />
    <trip id="103" depart="5.15" from="962#1" to="-215#1" />
    <trip id="104" depart="5.2" from="-1561#0" to="-976#2" />
    <trip id="105" depart="5.25" from="-167#22" to="-18" />
    <trip id="106" depart="5.3" from="286#0" to="234" />
    <trip id="107" depart="5.35" from="949#2" to="2008#3" />
    <trip id="108" depart="5.4" from="-947#1" to="-258#0" />
    <trip id="109" depart="5.45" from="1071#1" to="1500#0" />
    <trip id="110" depart="5.5" from="-9#4" to="16" />
    <trip id="111" depart="5.55" from="1497#1" to="-947#5" />
    <trip id="112" depart="5.6" from="888#2" to="-11#0" />
    <trip id="113" depart="5.65" from="-1846#1" to="129" />
    <trip id="114" depart="5.7" from="-1528#2" to="903#3" />
    <trip id="115" depart="5.75" from="-258#2" to="-1520" />
    <trip id="116" depart="5.8" from="-101#4" to="1712#0" />
    <trip id="117" depart="5.85" from="-2022#2" to="43#0" />
    <trip id="118" depart="5.9" from="1929#1" to="162#2" />
    <trip id="119" depart="5.95" from="1972#1" to="933" />
    <trip id="120" depart="6.0" from="1885" to="-1643" />
    <trip id="121" depart="6.05" from="320#2" to="-167#18" />
    <trip id="122" depart="6.1" from="1934" to="1952" />
    <trip id="123" depart="6.15" from="1530#3" to="1478#1" />
    <trip id="124" depart="6.2" from="1003#2" to="1152#1" />
    <trip id="125" depart="6.25" from="-953" to="-22#4" />
    <trip id="126" depart="6.3" from="1875#3" to="24#1" />
    <trip id="127" depart="6.35" from="298#4" to="1476#1" />
    <trip id="128" depart="6.4" from="-989#4" to="1885" />
    <trip id="129" depart="6.45" from="1918#1" to="223#5" />
    <trip id="130" depart="6.5" from="1968" to="-674#1" />
    <trip id="131" depart="6.55" from="514#11" to="1530#1" />
    <trip id="132" depart="6.6" from="1072" to="-301#1" />
    <trip id="133" depart="6.65" from="-222" to="459#0" />
    <trip id="134" depart="6.7" from="487#1" to="225" />
    <trip id="135" depart="6.75" from="1091" to="1103#1" />
    <trip id="136" depart="6.8" from="-203#2" to="1888" />
    <trip id="137" depart="6.85" from="22#8" to="-1936#1" />
    <trip id="138" depart="6.9" from="-989#3" to="-214#2" />
    <trip id="139" depart="6.95" from="159" to="1524#1" />
    <trip id="140" depart="7.0" from="-518#3" to="1069#0" />
    <trip id="141" depart="7.05" from="-1129" to="18" />
    <trip id="142" depart="7.1" from="997#0" to="119#0" />
    <trip id="143" depart="7.15" from="223#3" to="134" />
    <trip id="144" depart="7.2" from="1831#2" to="2014#2" />
    <trip id="145" depart="7.25" from="-765#3" to="-113#0" />
    <trip id="146" depart="7.3" from="1998#1" to="121" />
    <trip id="147" depart="7.35" from="343" to="-1529#2" />
    <trip id="148" depart="7.4" from="1922#0" to="1473#6" />
    <trip id="149" depart="7.45" from="487#0" to="1865" />
    <trip id="150" depart="7.5" from="2009" to="-109" />
    <trip id="151" depart="7.55" from="-137" to="1919#1" />
    <trip id="152" depart="7.6" from="929#1" to="1902#3" />
    <trip id="153" depart="7.65" from="-895#1" to="-619#5" />
    <trip id="154" depart="7.7" from="919#5" to="197#1" />
    <trip id="155" depart="7.75" from="1065" to="1016" />
    <trip id="156" depart="7.8" from="972#4" to="1524#0" />
    <trip id="157" depart="7.85" from="-765#5" to="976#0" />
    <trip id="158" depart="7.9" from="-223#4" to="-946#6" />
    <trip id="159" depart="7.95" from="-675#0" to="-1041#3" />
    <trip id="160" depart="8.0" from="320#3" to="-841#5" />
    <trip id="161" depart="8.05" from="-199#0" to="95#1" />
    <trip id="162" depart="8.1" from="1944#3" to="282#3" />
    <trip id="163" depart="8.15" from="-223#2" to="309#6" />
    <trip id="164" depart="8.2" from="-1076#0" to="2020#3" />
    <trip id="165" depart="8.25" from="9#1" to="116" />
    <trip id="166" depart="8.3" from="-203#1" to="1046#4" />
    <trip id="167" depart="8.35" from="1941#0" to="-9#4" />
    <trip id="168" depart="8.4" from="87#1" to="1476#2" />
    <trip id="169" depart="8.45" from="228" to="947#3" />
    <trip id="170" depart="8.5" from="951#2" to="514#4" />
    <trip id="171" depart="8.55" from="518#1" to="1921#1" />
    <trip id="172" depart="8.6" from="-1046#0" to="-1558" />
    <trip id="173" depart="8.65" from="882" to="-917" />
    <trip id="174" depart="8.7" from="952#0" to="-206" />
    <trip id="175" depart="8.75" from="-167#4" to="-380#1" />
    <trip id="176" depart="8.8" from="1929#7" to="1807#1" />
    <trip id="177" depart="8.85" from="426#1" to="17#0" />
    <trip id="178" depart="8.9" from="-258#5" to="2018#0" />
    <trip id="179" depart="8.95" from="-1083#1" to="-1544" />
    <trip id="180" depart="9.0" from="-351#1" to="237#0" />
    <trip id="181" depart="9.05" from="-1530#0" to="426#2" />
    <trip id="182" depart="9.1" from="514#5" to="-410#0" />
    <trip id="183" depart="9.15" from="2040#0" to="-2046#1" />
    <trip id="184" depart="9.2" from="1857#0" to="-113#2" />
    <trip id="185" depart="9.25" from="1785#2" to="1046#1" />
    <trip id="186" depart="9.3" from="1945#1" to="87#3" />
    <trip id="187" depart="9.35" from="1944#0" to="922" />
    <trip id="188" depart="9.4" from="1163" to="903#0" />
    <trip id="189" depart="9.45" from="-1092#1" to="1473#6" />
    <trip id="190" depart="9.5" from="-878#1" to="1694" />
    <trip id="191" depart="9.55" from="939" to="1469#1" />
    <trip id="192" depart="9.6" from="-405" to="163#3" />
    <trip id="193" depart="9.65" from="-43#2" to="1473#0" />
    <trip id="194" depart="9.7" from="-619#7" to="-227#1" />
    <trip id="195" depart="9.75" from="-97#1" to="-514#2" />
    <trip id="196" depart="9.8" from="-22#4" to="9#3" />
    <trip id="197" depart="9.85" from="22#3" to="-163#3" />
    <trip id="198" depart="9.9" from="1993" to="-165" />
    <trip id="199" depart="9.95" from="952#6" to="1902#1" />
    <trip id="200" depart="10.0" from="-167#16" to="1998#0" />
    <trip id="201" depart="10.05" from="96" to="-674#1" />
    <trip id="202" depart="10.1" from="2006" to="467#1" />
    <trip id="203" depart="10.15" from="841#3" to="1123" />
    <trip id="204" depart="10.2" from="-962#1" to="486#1" />
    <trip id="205" depart="10.25" from="228" to="-1556#1" />
    <trip id="206" depart="10.3" from="324#1" to="1154#1" />
    <trip id="207" depart="10.35" from="976#1" to="1146" />
    <trip id="208" depart="10.4" from="-932#1" to="1042#6" />
    <trip id="209" depart="10.45" from="-422#1" to="54" />
    <trip id="210" depart="10.5" from="1466#5" to="-1993" />
    <trip id="211" depart="10.55" from="618#0" to="716#2" />
    <trip id="212" depart="10.6" from="-196" to="215#2" />
    <trip id="213" depart="10.65" from="1165#0" to="-1046#2" />
    <trip id="214" depart="10.7" from="814#0" to="-1852" />
    <trip id="215" depart="10.75" from="997#2" to="-9#4" />
    <trip id="216" depart="10.8" from="452#1" to="-1046#3" />
    <trip id="217" depart="10.85" from="1007#0" to="1174#4" />
    <trip id="218" depart="10.9" from="205" to="686#1" />
    <trip id="219" depart="10.95" from="-895#1" to="9#1" />
    <trip id="220" depart="11.0" from="1939#3" to="1148" />
    <trip id="221" depart="11.05" from="1527#3" to="1488#0" />
    <trip id="222" depart="11.1" from="-433#3" to="1546#0" />
    <trip id="223" depart="11.15" from="1966#0" to="1489#2" />
    <trip id="224" depart="11.2" from="1007#2" to="924" />
    <trip id="225" depart="11.25" from="-715#0" to="1998#0" />
    <trip id="226" depart="11.3" from="534#3" to="1137#5" />
    <trip id="227" depart="11.35" from="1880" to="-345#0" />
    <trip id="228" depart="11.4" from="-214#2" to="-967#2" />
    <trip id="229" depart="11.45" from="1522#1" to="1497#0" />
    <trip id="230" depart="11.5" from="1785#2" to="-619#7" />
    <trip id="231" depart="11.55" from="-152#0" to="-674#1" />
    <trip id="232" depart="11.6" from="1945#3" to="1136#3" />
    <trip id="233" depart="11.65" from="193#6" to="-27#6" />
    <trip id="234" depart="11.7" from="918#1" to="932#2" />
    <trip id="235" depart="11.75" from="2020#4" to="1050#3" />
    <trip id="236" depart="11.8" from="295" to="-22#2" />
    <trip id="237" depart="11.85" from="638" to="931#2" />
    <trip id="238" depart="11.9" from="156#3" to="205" />
    <trip id="239" depart="11.95" from="813#0" to="-514#0" />
    <trip id="240" depart="12.0" from="-197#1" to="1559" />
    <trip id="241" depart="12.05" from="2045#1" to="-96" />
    <trip id="242" depart="12.1" from="-1024#2" to="-2022#2" />
    <trip id="243" depart="12.15" from="1475" to="1490" />
    <trip id="244" depart="12.2" from="2046#3" to="-841#0" />
    <trip id="245" depart="12.25" from="167#12" to="-1527#1" />
    <trip id="246" depart="12.3" from="-813#0" to="-258#1" />
    <trip id="247" depart="12.35" from="422#3" to="1945#4" />
    <trip id="248" depart="12.4" from="215#2" to="950" />
    <trip id="249" depart="12.45" from="-1132#3" to="1562" />
    <trip id="250" depart="12.5" from="-639#0" to="422#2" />
    <trip id="251" depart="12.55" from="-864#0" to="1699#0" />
    <trip id="252" depart="12.6" from="298#3" to="1661#1" />
    <trip id="253" depart="12.65" from="-1642" to="-9#0" />
    <trip id="254" depart="12.7" from="1945#5" to="1104#0" />
    <trip id="255" depart="12.75" from="235" to="618#1" />
    <trip id="256" depart="12.8" from="1714" to="-309#4" />
    <trip id="257" depart="12.85" from="-1936#1" to="1522#1" />
    <trip id="258" depart="12.9" from="1042#3" to="177#1" />
    <trip id="259" depart="12.95" from="1897#1" to="1560" />
    <trip id="260" depart="13.0" from="1965#1" to="-228" />
    <trip id="261" depart="13.05" from="1527#4" to="487#1" />
    <trip id="262" depart="13.1" from="-1528#6" to="1929#0" />
    <trip id="263" depart="13.15" from="1869#0" to="76#1" />
    <trip id="264" depart="13.2" from="380#1" to="-1523#1" />
    <trip id="265" depart="13.25" from="160#1" to="841#6" />
    <trip id="266" depart="13.3" from="639#0" to="1961#0" />
    <trip id="267" depart="13.35" from="1030#0" to="-137" />
    <trip id="268" depart="13.4" from="-1523#0" to="1024#2" />
    <trip id="269" depart="13.45" from="1012" to="-160#1" />
    <trip id="270" depart="13.5" from="11#2" to="814#1" />
    <trip id="271" depart="13.55" from="1158#1" to="1071#1" />
    <trip id="272" depart="13.6" from="-215#4" to="1978" />
    <trip id="273" depart="13.65" from="-167#19" to="-467#0" />
    <trip id="274" depart="13.7" from="-215#1" to="1095#0" />
    <trip id="275" depart="13.75" from="90#4" to="1505#0" />
    <trip id="276" depart="13.8" from="1473#7" to="1900#6" />
    <trip id="277" depart="13.85" from="-97#0" to="1941#1" />
    <trip id="278" depart="13.9" from="1495#0" to="972#2" />
    <trip id="279" depart="13.95" from="1997" to="-459#4" />
    <trip id="280" depart="14.0" from="-83#7" to="282#2" />
    <trip id="281" depart="14.05" from="1824" to="1555#2" />
    <trip id="282" depart="14.1" from="2040#2" to="340#1" />
    <trip id="283" depart="14.15" from="976#1" to="1483#0" />
    <trip id="284" depart="14.2" from="989#1" to="1688#1" />
    <trip id="285" depart="14.25" from="124#1" to="952#4" />
    <trip id="286" depart="14.3" from="950" to="-936" />
    <trip id="287" depart="14.35" from="864#1" to="-260#0" />
    <trip id="288" depart="14.4" from="1715#2" to="671" />
    <trip id="289" depart="14.45" from="27#3" to="-83#11" />
    <trip id="290" depart="14.5" from="-17#0" to="534#5" />
    <trip id="291" depart="14.55" from="1938#1" to="-1492#2" />
    <trip id="292" depart="14.6" from="2041#1" to="83#5" />
    <trip id="293" depart="14.65" from="1473#0" to="1896" />
    <trip id="294" depart="14.7" from="1530#1" to="162#2" />
    <trip id="295" depart="14.75" from="-90#0" to="-635" />
    <trip id="296" depart="14.8" from="-207#0" to="-101#0" />
    <trip id="297" depart="14.85" from="1104#0" to="1671" />
    <trip id="298" depart="14.9" from="309#4" to="970#1" />
    <trip id="299" depart="14.95" from="-27#4" to="2039#2" />
    <trip id="300" depart="15.0" from="1954#0" to="1814" />
    <trip id="301" depart="15.05" from="111" to="1643" />
    <trip id="302" depart="15.1" from="1997" to="-237#1" />
    <trip id="303" depart="15.15" from="-1134" to="683#1" />
    <trip id="304" depart="15.2" from="1828" to="-2046#1" />
    <trip id="305" depart="15.25" from="1155#0" to="1959#0" />
    <trip id="306" depart="15.3" from="1979#0" to="-106#2" />
    <trip id="307" depart="15.35" from="-895#1" to="2046#7" />
    <trip id="308" depart="15.4" from="346#1" to="1714" />
    <trip id="309" depart="15.45" from="-1537#3" to="1156#1" />
    <trip id="310" depart="15.5" from="1046#2" to="1063#0" />
    <trip id="311" depart="15.55" from="2030#0" to="1029" />
    <trip id="312" depart="15.6" from="-1528#2" to="-194#0" />
    <trip id="313" depart="15.65" from="776#0" to="-9#4" />
    <trip id="314" depart="15.7" from="1980#0" to="-1492#3" />
    <trip id="315" depart="15.75" from="1024#0" to="-222" />
    <trip id="316" depart="15.8" from="-814#1" to="686#0" />
    <trip id="317" depart="15.85" from="-962#1" to="28#2" />
    <trip id="318" depart="15.9" from="-616#1" to="-894#0" />
    <trip id="319" depart="15.95" from="514#8" to="-1110#2" />
    <trip id="320" depart="16.0" from="-199#1" to="1186" />
    <trip id="321" depart="16.05" from="-1535" to="-227#0" />
    <trip id="322" depart="16.1" from="1680" to="405" />
    <trip id="323" depart="16.15" from="1837#2" to="-946#0" />
    <trip id="324" depart="16.2" from="-426#1" to="1026#2" />
    <trip id="325" depart="16.25" from="1157#2" to="927#1" />
    <trip id="326" depart="16.3" from="841#6" to="814#0" />
    <trip id="327" depart="16.35" from="-151#2" to="120" />
    <trip id="328" depart="16.4" from="-27#13" to="501#0" />
    <trip id="329" depart="16.45" from="502" to="-816" />
    <trip id="330" depart="16.5" from="1996#1" to="1808#0" />
    <trip id="331" depart="16.55" from="1966#0" to="1158#1" />
    <trip id="332" depart="16.6" from="-1024#3" to="-260#0" />
    <trip id="333" depart="16.65" from="-342#0" to="950" />
    <trip id="334" depart="16.7" from="-193#6" to="1024#2" />
    <trip id="335" depart="16.75" from="1024#4" to="1014#0" />
    <trip id="336" depart="16.8" from="86" to="485#0" />
    <trip id="337" depart="16.85" from="1663#0" to="-894#2" />
    <trip id="338" depart="16.9" from="-345#1" to="-410#0" />
    <trip id="339" depart="16.95" from="1554#1" to="215#1" />
    <trip id="340" depart="17.0" from="-1505#0" to="-164#1" />
    <trip id="341" depart="17.05" from="306#0" to="330#0" />
    <trip id="342" depart="17.1" from="-27#14" to="-14" />
    <trip id="343" depart="17.15" from="1#1" to="1928#0" />
    <trip id="344" depart="17.2" from="2031#2" to="1079#0" />
    <trip id="345" depart="17.25" from="1866" to="-1752#1" />
    <trip id="346" depart="17.3" from="-27#7" to="51" />
    <trip id="347" depart="17.35" from="-151#3" to="1943#2" />
    <trip id="348" depart="17.4" from="87#0" to="-932#1" />
    <trip id="349" depart="17.45" from="294" to="223#5" />
    <trip id="350" depart="17.5" from="1808#1" to="-1846#2" />
    <trip id="351" depart="17.55" from="-616#1" to="-776#0" />
    <trip id="352" depart="17.6" from="976#2" to="-160#0" />
    <trip id="353" depart="17.65" from="260#0" to="164#1" />
    <trip id="354" depart="17.7" from="1140#3" to="514#13" />
    <trip id="355" depart="17.75" from="1174#6" to="-81#0" />
    <trip id="356" depart="17.8" from="-27#18" to="1157#0" />
    <trip id="357" depart="17.85" from="1469#1" to="-1528#4" />
    <trip id="358" depart="17.9" from="1157#3" to="-1641" />
    <trip id="359" depart="17.95" from="-309#3" to="-993#2" />
    <trip id="360" depart="18.0" from="233" to="-888#2" />
    <trip id="361" depart="18.05" from="124#1" to="-765#3" />
    <trip id="362" depart="18.1" from="-27#3" to="514#4" />
    <trip id="363" depart="18.15" from="1830#0" to="124#0" />
    <trip id="364" depart="18.2" from="132#0" to="878#1" />
    <trip id="365" depart="18.25" from="518#2" to="889#0" />
    <trip id="366" depart="18.3" from="-193#0" to="-514#16" />
    <trip id="367" depart="18.35" from="-865#2" to="-114#1" />
    <trip id="368" depart="18.4" from="-422#2" to="-509#1" />
    <trip id="369" depart="18.45" from="-1094#1" to="-207#0" />
    <trip id="370" depart="18.5" from="-459#4" to="228" />
    <trip id="371" depart="18.55" from="-2046#6" to="-514#15" />
    <trip id="372" depart="18.6" from="-1252" to="1904" />
    <trip id="373" depart="18.65" from="2030#2" to="1041#0" />
    <trip id="374" depart="18.7" from="-43#1" to="162#0" />
    <trip id="375" depart="18.75" from="1996#6" to="1882" />
    <trip id="376" depart="18.8" from="390" to="372" />
    <trip id="377" depart="18.85" from="-102#2" to="1104#0" />
    <trip id="378" depart="18.9" from="-139#0" to="-203#1" />
    <trip id="379" depart="18.95" from="1998#5" to="-258#4" />
    <trip id="380" depart="19.0" from="-2046#10" to="282#2" />
    <trip id="381" depart="19.05" from="86" to="535" />
    <trip id="382" depart="19.1" from="1076#1" to="487#5" />
    <trip id="383" depart="19.15" from="1556#0" to="-161#1" />
    <trip id="384" depart="19.2" from="2033#0" to="895#0" />
    <trip id="385" depart="19.25" from="-206" to="-309#0" />
    <trip id="386" depart="19.3" from="-553#0" to="-553#1" />
    <trip id="387" depart="19.35" from="1466#2" to="1951" />
    <trip id="388" depart="19.4" from="426#0" to="1466#1" />
    <trip id="389" depart="19.45" from="-132#0" to="83#5" />
    <trip id="390" depart="19.5" from="1902#0" to="-452#1" />
    <trip id="391" depart="19.55" from="1811#0" to="-199#0" />
    <trip id="392" depart="19.6" from="86" to="1104#0" />
    <trip id="393" depart="19.65" from="1929#6" to="-885#1" />
    <trip id="394" depart="19.7" from="914#2" to="11#2" />
    <trip id="395" depart="19.75" from="184#0" to="1922#0" />
    <trip id="396" depart="19.8" from="-1124#1" to="1066" />
    <trip id="397" depart="19.85" from="-223#4" to="-1#1" />
    <trip id="398" depart="19.9" from="27#10" to="156#0" />
    <trip id="399" depart="19.95" from="2044#0" to="996#2" />
    <trip id="400" depart="20.0" from="193#1" to="1132#1" />
    <trip id="401" depart="20.05" from="-879#2" to="392" />
    <trip id="402" depart="20.1" from="338#1" to="-965" />
    <trip id="403" depart="20.15" from="-143" to="1048" />
    <trip id="404" depart="20.2" from="903#2" to="686#1" />
    <trip id="405" depart="20.25" from="1135" to="-432#0" />
    <trip id="406" depart="20.3" from="-232#1" to="1939#3" />
    <trip id="407" depart="20.35" from="301#1" to="2033#0" />
    <trip id="408" depart="20.4" from="1529#0" to="2019#1" />
    <trip id="409" depart="20.45" from="1918#2" to="-966#0" />
    <trip id="410" depart="20.5" from="1168" to="-101#2" />
    <trip id="411" depart="20.55" from="1929#0" to="-309#2" />
    <trip id="412" depart="20.6" from="333#1" to="-993#3" />
    <trip id="413" depart="20.65" from="970#0" to="-119#1" />
    <trip id="414" depart="20.7" from="-156#3" to="-422#2" />
    <trip id="415" depart="20.75" from="1119#0" to="1485" />
    <trip id="416" depart="20.8" from="-639#0" to="993#3" />
    <trip id="417" depart="20.85" from="1134" to="1526" />
    <trip id="418" depart="20.9" from="1493#2" to="-1936#1" />
    <trip id="419" depart="20.95" from="2014#0" to="1099" />
    <trip id="420" depart="21.0" from="999" to="-2046#6" />
    <trip id="421" depart="21.05" from="2014#1" to="1090" />
    <trip id="422" depart="21.1" from="155" to="-1536" />
    <trip id="423" depart="21.15" from="-962#1" to="2046#8" />
    <trip id="424" depart="21.2" from="-1544" to="1008#1" />
    <trip id="425" depart="21.25" from="929#0" to="-1102" />
    <trip id="426" depart="21.3" from="165" to="-90#2" />
    <trip id="427" depart="21.35" from="686#1" to="518#0" />
    <trip id="428" depart="21.4" from="1535" to="1686" />
    <trip id="429" depart="21.45" from="-126#0" to="894#0" />
    <trip id="430" depart="21.5" from="-1785#1" to="1070#0" />
    <trip id="431" depart="21.55" from="-194#1" to="12#1" />
    <trip id="432" depart="21.6" from="422#0" to="-1531" />
    <trip id="433" depart="21.65" from="-936" to="2018#0" />
    <trip id="434" depart="21.7" from="2030#1" to="223#1" />
    <trip id="435" depart="21.75" from="1471" to="-619#5" />
    <trip id="436" depart="21.8" from="1999#4" to="26#1" />
    <trip id="437" depart="21.85" from="1546#0" to="1551" />
    <trip id="438" depart="21.9" from="1940#1" to="-640#1" />
    <trip id="439" depart="21.95" from="-932#0" to="-1385#0" />
    <trip id="440" depart="22.0" from="1838#1" to="436#2" />
    <trip id="441" depart="22.05" from="1554#0" to="1488#0" />
    <trip id="442" depart="22.1" from="1030#1" to="-433#0" />
    <trip id="443" depart="22.15" from="695" to="-167#14" />
    <trip id="444" depart="22.2" from="-162#2" to="-156#2" />
    <trip id="445" depart="22.25" from="1079#1" to="1067" />
    <trip id="446" depart="22.3" from="294" to="309#4" />
    <trip id="447" depart="22.35" from="956#0" to="1829" />
    <trip id="448" depart="22.4" from="193#3" to="-90#1" />
    <trip id="449" depart="22.45" from="967#0" to="432#0" />
    <trip id="450" depart="22.5" from="-966#1" to="1155#0" />
    <trip id="451" depart="22.55" from="1798#0" to="-645#0" />
    <trip id="452" depart="22.6" from="-976#2" to="426#2" />
    <trip id="453" depart="22.65" from="27#12" to="161#1" />
    <trip id="454" depart="22.7" from="386#0" to="1827" />
    <trip id="455" depart="22.75" from="946#0" to="1949#0" />
    <trip id="456" depart="22.8" from="841#2" to="-90#2" />
    <trip id="457" depart="22.85" from="-430#0" to="1912" />
    <trip id="458" depart="22.9" from="-1125#0" to="814#0" />
    <trip id="459" depart="22.95" from="-935#1" to="1922#1" />
    <trip id="460" depart="23.0" from="1977" to="-883" />
    <trip id="461" depart="23.05" from="949#1" to="1462" />
    <trip id="462" depart="23.1" from="639#1" to="1469#1" />
    <trip id="463" depart="23.15" from="467#1" to="-1850" />
    <trip id="464" depart="23.2" from="1866" to="-380#1" />
    <trip id="465" depart="23.25" from="-228" to="-350" />
    <trip id="466" depart="23.3" from="-262" to="1473#3" />
    <trip id="467" depart="23.35" from="1003#2" to="114#0" />
    <trip id="468" depart="23.4" from="389" to="1467" />
    <trip id="469" depart="23.45" from="-947#1" to="1875#3" />
    <trip id="470" depart="23.5" from="1923#0" to="-467#1" />
    <trip id="471" depart="23.55" from="-1916#1" to="1996#6" />
    <trip id="472" depart="23.6" from="1869#1" to="1146" />
    <trip id="473" depart="23.65" from="-1109" to="-709" />
    <trip id="474" depart="23.7" from="967#2" to="882" />
    <trip id="475" depart="23.75" from="1556#0" to="-151#4" />
    <trip id="476" depart="23.8" from="952#4" to="-22#1" />
    <trip id="477" depart="23.85" from="-1024#4" to="1165#4" />
    <trip id="478" depart="23.9" from="-929#0" to="1010#0" />
    <trip id="479" depart="23.95" from="1715#0" to="1152#1" />
    <trip id="480" depart="24.0" from="2043" to="645#2" />
    <trip id="481" depart="24.05" from="237#1" to="1926#0" />
    <trip id="482" depart="24.1" from="-1522#5" to="-523#1" />
    <trip id="483" depart="24.15" from="-1024#2" to="1973#1" />
    <trip id="484" depart="24.2" from="-27#6" to="1945#3" />
    <trip id="485" depart="24.25" from="1897#1" to="83#4" />
    <trip id="486" depart="24.3" from="1998#4" to="308#1" />