<?xml version="1.0" encoding="UTF-8"?>

<!-- generated on 03/16/16 22:15:41 by SUMO netgenerate Version 0.23.0
<?xml version="1.0" encoding="UTF-8"?>

<configuration xmlns:xsi="http://www.w3.org/2001/XMLSchema-instance" xsi:noNamespaceSchemaLocation="http://sumo.dlr.de/xsd/netgenerateConfiguration.xsd">

    <grid_network>
        <grid value="true"/>
        <grid.number value="2"/>
        <grid.length value="50"/>
    </grid_network>

    <output>
        <output-file value="input_net.net.xml"/>
    </output>

    <processing>
        <no-internal-links value="true"/>
    </processing>

    <building_defaults>
        <default.lanenumber value="2"/>
        <default.speed value="20"/>
        <default-junction-type value="traffic_light"/>
    </building_defaults>

</configuration>
-->

<net version="0.13" xmlns:xsi="http://www.w3.org/2001/XMLSchema-instance" xsi:noNamespaceSchemaLocation="http://sumo.dlr.de/xsd/net_file.xsd">

    <location netOffset="0.00,0.00" convBoundary="0.00,0.00,50.00,50.00" origBoundary="0.00,0.00,50.00,50.00" projParameter="!"/>

    <edge id="0/0to0/1" from="0/0" to="0/1" priority="-1">
        <lane id="0/0to0/1_0" index="0" speed="20.00" length="50.00" shape="4.95,6.55 4.95,43.45"/>
        <lane id="0/0to0/1_1" index="1" speed="20.00" length="50.00" shape="1.65,6.55 1.65,43.45"/>
    </edge>
    <edge id="0/0to1/0" from="0/0" to="1/0" priority="-1">
        <lane id="0/0to1/0_0" index="0" speed="20.00" length="50.00" shape="6.55,-4.95 43.45,-4.95"/>
        <lane id="0/0to1/0_1" index="1" speed="20.00" length="50.00" shape="6.55,-1.65 43.45,-1.65"/>
    </edge>
    <edge id="0/1to0/0" from="0/1" to="0/0" priority="-1">
        <lane id="0/1to0/0_0" index="0" speed="20.00" length="50.00" shape="-4.95,43.45 -4.95,6.55"/>
        <lane id="0/1to0/0_1" index="1" speed="20.00" length="50.00" shape="-1.65,43.45 -1.65,6.55"/>
    </edge>
    <edge id="0/1to1/1" from="0/1" to="1/1" priority="-1">
        <lane id="0/1to1/1_0" index="0" speed="20.00" length="50.00" shape="6.55,45.05 43.45,45.05"/>
        <lane id="0/1to1/1_1" index="1" speed="20.00" length="50.00" shape="6.55,48.35 43.45,48.35"/>
    </edge>
    <edge id="1/0to0/0" from="1/0" to="0/0" priority="-1">
        <lane id="1/0to0/0_0" index="0" speed="20.00" length="50.00" shape="43.45,4.95 6.55,4.95"/>
        <lane id="1/0to0/0_1" index="1" speed="20.00" length="50.00" shape="43.45,1.65 6.55,1.65"/>
    </edge>
    <edge id="1/0to1/1" from="1/0" to="1/1" priority="-1">
        <lane id="1/0to1/1_0" index="0" speed="20.00" length="50.00" shape="54.95,6.55 54.95,43.45"/>
        <lane id="1/0to1/1_1" index="1" speed="20.00" length="50.00" shape="51.65,6.55 51.65,43.45"/>
    </edge>
    <edge id="1/1to0/1" from="1/1" to="0/1" priority="-1">
        <lane id="1/1to0/1_0" index="0" speed="20.00" length="50.00" shape="43.45,54.95 6.55,54.95"/>
        <lane id="1/1to0/1_1" index="1" speed="20.00" length="50.00" shape="43.45,51.65 6.55,51.65"/>
    </edge>
    <edge id="1/1to1/0" from="1/1" to="1/0" priority="-1">
        <lane id="1/1to1/0_0" index="0" speed="20.00" length="50.00" shape="45.05,43.45 45.05,6.55"/>
        <lane id="1/1to1/0_1" index="1" speed="20.00" length="50.00" shape="48.35,43.45 48.35,6.55"/>
    </edge>

    <tlLogic id="0/0" type="static" programID="0" offset="0">
        <phase duration="31" state="GGgGGr"/>
        <phase duration="6" state="yyyyyr"/>
        <phase duration="31" state="GGrGGg"/>
        <phase duration="6" state="yyryyy"/>
    </tlLogic>
    <tlLogic id="0/1" type="static" programID="0" offset="0">
        <phase duration="31" state="GGgGGr"/>
        <phase duration="6" state="yyyyyr"/>
        <phase duration="31" state="GGrGGg"/>
        <phase duration="6" state="yyryyy"/>
    </tlLogic>
    <tlLogic id="1/0" type="static" programID="0" offset="0">
        <phase duration="31" state="GGgGGr"/>
        <phase duration="6" state="yyyyyr"/>
        <phase duration="31" state="GGrGGg"/>
        <phase duration="6" state="yyryyy"/>
    </tlLogic>
    <tlLogic id="1/1" type="static" programID="0" offset="0">
        <phase duration="31" state="GGgGGr"/>
        <phase duration="6" state="yyyyyr"/>
        <phase duration="31" state="GGrGGg"/>
        <phase duration="6" state="yyryyy"/>
    </tlLogic>

    <junction id="0/0" type="traffic_light" x="0.00" y="0.00" incLanes="0/1to0/0_0 0/1to0/0_1 1/0to0/0_0 1/0to0/0_1" intLanes="" shape="-6.55,6.55 6.55,6.55 6.55,-6.55">
        <request index="0" response="000000" foes="100000"/>
        <request index="1" response="000000" foes="100000"/>
        <request index="2" response="011000" foes="011000"/>
        <request index="3" response="000000" foes="000100"/>
        <request index="4" response="000000" foes="000100"/>
        <request index="5" response="000011" foes="000011"/>
    </junction>
    <junction id="0/1" type="traffic_light" x="0.00" y="50.00" incLanes="1/1to0/1_0 1/1to0/1_1 0/0to0/1_0 0/0to0/1_1" intLanes="" shape="6.55,56.55 6.55,43.45 -6.55,43.45">
        <request index="0" response="000000" foes="100000"/>
        <request index="1" response="000000" foes="100000"/>
        <request index="2" response="011000" foes="011000"/>
        <request index="3" response="000000" foes="000100"/>
        <request index="4" response="000000" foes="000100"/>
        <request index="5" response="000011" foes="000011"/>
    </junction>
    <junction id="1/0" type="traffic_light" x="50.00" y="0.00" incLanes="1/1to1/0_0 1/1to1/0_1 0/0to1/0_0 0/0to1/0_1" intLanes="" shape="43.45,6.55 56.55,6.55 43.45,-6.55 43.45,6.55">
        <request index="0" response="000000" foes="100000"/>
        <request index="1" response="000000" foes="100000"/>
        <request index="2" response="011000" foes="011000"/>
        <request index="3" response="000000" foes="000100"/>
        <request index="4" response="000000" foes="000100"/>
        <request index="5" response="000011" foes="000011"/>
    </junction>
    <junction id="1/1" type="traffic_light" x="50.00" y="50.00" incLanes="1/0to1/1_0 1/0to1/1_1 0/1to1/1_0 0/1to1/1_1" intLanes="" shape="56.55,43.45 43.45,43.45 43.45,56.55">
        <request index="0" response="000000" foes="100000"/>
        <request index="1" response="000000" foes="100000"/>
        <request index="2" response="011000" foes="011000"/>
        <request index="3" response="000000" foes="000100"/>
        <request index="4" response="000000" foes="000100"/>
        <request index="5" response="000011" foes="000011"/>
    </junction>

    <connection from="0/0to0/1" to="0/1to1/1" fromLane="0" toLane="0" tl="0/1" linkIndex="3" dir="r" state="o"/>
    <connection from="0/0to0/1" to="0/1to1/1" fromLane="1" toLane="1" tl="0/1" linkIndex="4" dir="r" state="o"/>
    <connection from="0/0to0/1" to="0/1to0/0" fromLane="1" toLane="1" tl="0/1" linkIndex="5" dir="t" state="o"/>
    <connection from="0/0to1/0" to="1/0to1/1" fromLane="0" toLane="0" tl="1/0" linkIndex="3" dir="l" state="o"/>
    <connection from="0/0to1/0" to="1/0to1/1" fromLane="1" toLane="1" tl="1/0" linkIndex="4" dir="l" state="o"/>
    <connection from="0/0to1/0" to="1/0to0/0" fromLane="1" toLane="1" tl="1/0" linkIndex="5" dir="t" state="o"/>
    <connection from="0/1to0/0" to="0/0to1/0" fromLane="0" toLane="0" tl="0/0" linkIndex="0" dir="l" state="o"/>
    <connection from="0/1to0/0" to="0/0to1/0" fromLane="1" toLane="1" tl="0/0" linkIndex="1" dir="l" state="o"/>
    <connection from="0/1to0/0" to="0/0to0/1" fromLane="1" toLane="1" tl="0/0" linkIndex="2" dir="t" state="o"/>
    <connection from="0/1to1/1" to="1/1to1/0" fromLane="0" toLane="0" tl="1/1" linkIndex="3" dir="r" state="o"/>
    <connection from="0/1to1/1" to="1/1to1/0" fromLane="1" toLane="1" tl="1/1" linkIndex="4" dir="r" state="o"/>
    <connection from="0/1to1/1" to="1/1to0/1" fromLane="1" toLane="1" tl="1/1" linkIndex="5" dir="t" state="o"/>
    <connection from="1/0to0/0" to="0/0to0/1" fromLane="0" toLane="0" tl="0/0" linkIndex="3" dir="r" state="o"/>
    <connection from="1/0to0/0" to="0/0to0/1" fromLane="1" toLane="1" tl="0/0" linkIndex="4" dir="r" state="o"/>
    <connection from="1/0to0/0" to="0/0to1/0" fromLane="1" toLane="1" tl="0/0" linkIndex="5" dir="t" state="o"/>
    <connection from="1/0to1/1" to="1/1to0/1" fromLane="0" toLane="0" tl="1/1" linkIndex="0" dir="l" state="o"/>
    <connection from="1/0to1/1" to="1/1to0/1" fromLane="1" toLane="1" tl="1/1" linkIndex="1" dir="l" state="o"/>
    <connection from="1/0to1/1" to="1/1to1/0" fromLane="1" toLane="1" tl="1/1" linkIndex="2" dir="t" state="o"/>
    <connection from="1/1to0/1" to="0/1to0/0" fromLane="0" toLane="0" tl="0/1" linkIndex="0" dir="l" state="o"/>
    <connection from="1/1to0/1" to="0/1to0/0" fromLane="1" toLane="1" tl="0/1" linkIndex="1" dir="l" state="o"/>
    <connection from="1/1to0/1" to="0/1to1/1" fromLane="1" toLane="1" tl="0/1" linkIndex="2" dir="t" state="o"/>
    <connection from="1/1to1/0" to="1/0to0/0" fromLane="0" toLane="0" tl="1/0" linkIndex="0" dir="r" state="o"/>
    <connection from="1/1to1/0" to="1/0to0/0" fromLane="1" toLane="1" tl="1/0" linkIndex="1" dir="r" state="o"/>
    <connection from="1/1to1/0" to="1/0to1/1" fromLane="1" toLane="1" tl="1/0" linkIndex="2" dir="t" state="o"/>

</net>
