<?xml version="1.0"?>
<trips>
    <trip id="0" depart="0.0" from="-432#0" to="1095#0" />
    <trip id="1" depart="0.05" from="-197#2" to="-1046#2" />
    <trip id="2" depart="0.1" from="203#0" to="-1527#3" />
    <trip id="3" depart="0.15" from="683#1" to="1819#1" />
    <trip id="4" depart="0.2" from="680#1" to="886#1" />
    <trip id="5" depart="0.25" from="883" to="930#2" />
    <trip id="6" depart="0.3" from="1042#8" to="87#3" />
    <trip id="7" depart="0.35" from="535" to="-351#0" />
    <trip id="8" depart="0.4" from="102#1" to="-813#0" />
    <trip id="9" depart="0.45" from="223#3" to="1019" />
    <trip id="10" depart="0.5" from="914#4" to="-1900#6" />
    <trip id="11" depart="0.55" from="1684#1" to="-760" />
    <trip id="12" depart="0.6" from="-101#2" to="1801#3" />
    <trip id="13" depart="0.65" from="1003#3" to="23#1" />
    <trip id="14" depart="0.7" from="167#19" to="-1533#0" />
    <trip id="15" depart="0.75" from="-9#2" to="1691" />
    <trip id="16" depart="0.8" from="-815" to="-151#3" />
    <trip id="17" depart="0.85" from="686#0" to="-308#0" />
    <trip id="18" depart="0.9" from="2008#0" to="287" />
    <trip id="19" depart="0.95" from="1902#2" to="1081" />
    <trip id="20" depart="1.0" from="1673" to="1492#2" />
    <trip id="21" depart="1.05" from="947#1" to="-1108" />
    <trip id="22" depart="1.1" from="1623#2" to="-432#0" />
    <trip id="23" depart="1.15" from="-1530#2" to="-618#3" />
    <trip id="24" depart="1.2" from="1466#1" to="422#1" />
    <trip id="25" depart="1.25" from="-164#0" to="928#0" />
    <trip id="26" depart="1.3" from="1140#3" to="929#1" />
    <trip id="27" depart="1.35" from="-223#3" to="-449" />
    <trip id="28" depart="1.4" from="1673" to="1969#0" />
    <trip id="29" depart="1.45" from="1799#0" to="2046#10" />
    <trip id="30" depart="1.5" from="1478#2" to="1119#2" />
    <trip id="31" depart="1.55" from="-90#2" to="101#1" />
    <trip id="32" depart="1.6" from="1819#3" to="1148" />
    <trip id="33" depart="1.65" from="1135" to="-1024#4" />
    <trip id="34" depart="1.7" from="90#0" to="344#0" />
    <trip id="35" depart="1.75" from="1138#2" to="1528#4" />
    <trip id="36" depart="1.8" from="200#0" to="1466#0" />
    <trip id="37" depart="1.85" from="1720#2" to="-684#2" />
    <trip id="38" depart="1.9" from="1939#2" to="-946#8" />
    <trip id="39" depart="1.95" from="-625" to="-955#1" />
    <trip id="40" depart="2.0" from="2031#0" to="-1117" />
    <trip id="41" depart="2.05" from="-127" to="1017" />
    <trip id="42" depart="2.1" from="324#2" to="-43#0" />
    <trip id="43" depart="2.15" from="-813#0" to="-534#1" />
    <trip id="44" depart="2.2" from="392" to="194#1" />
    <trip id="45" depart="2.25" from="-976#0" to="889#0" />
    <trip id="46" depart="2.3" from="1116#0" to="1157#2" />
    <trip id="47" depart="2.35" from="-1718" to="172#0" />
    <trip id="48" depart="2.4" from="1996#8" to="150" />
    <trip id="49" depart="2.45" from="-553#0" to="1908" />
    <trip id="50" depart="2.5" from="-1080" to="904#1" />
    <trip id="51" depart="2.55" from="2020#3" to="-193#4" />
    <trip id="52" depart="2.6" from="-167#12" to="514#14" />
    <trip id="53" depart="2.65" from="1959#0" to="-1538" />
    <trip id="54" depart="2.7" from="338#0" to="1010#0" />
    <trip id="55" depart="2.75" from="1680" to="518#2" />
    <trip id="56" depart="2.8" from="1001" to="865#2" />
    <trip id="57" depart="2.85" from="-841#5" to="1998#2" />
    <trip id="58" depart="2.9" from="1469#0" to="-163#2" />
    <trip id="59" depart="2.95" from="-199#0" to="1137#0" />
    <trip id="60" depart="3.0" from="1808#1" to="2014#1" />
    <trip id="61" depart="3.05" from="193#3" to="320#2" />
    <trip id="62" depart="3.1" from="1074#2" to="1879" />
    <trip id="63" depart="3.15" from="90#2" to="-1752#2" />
    <trip id="64" depart="3.2" from="1028" to="1073#1" />
    <trip id="65" depart="3.25" from="298#2" to="253#1" />
    <trip id="66" depart="3.3" from="282#0" to="1819#0" />
    <trip id="67" depart="3.35" from="-260#0" to="-2046#9" />
    <trip id="68" depart="3.4" from="1929#7" to="1996#1" />
    <trip id="69" depart="3.45" from="1531" to="-684#3" />
    <trip id="70" depart="3.5" from="27#1" to="1103#1" />
    <trip id="71" depart="3.55" from="-1106" to="-167#18" />
    <trip id="72" depart="3.6" from="346#0" to="-1384#1" />
    <trip id="73" depart="3.65" from="-946#1" to="-343" />
    <trip id="74" depart="3.7" from="-1119#2" to="-19#1" />
    <trip id="75" depart="3.75" from="-865#0" to="12#1" />
    <trip id="76" depart="3.8" from="391" to="-1019" />
    <trip id="77" depart="3.85" from="-435#1" to="1873" />
    <trip id="78" depart="3.9" from="946#7" to="1814" />
    <trip id="79" depart="3.95" from="-1555#0" to="-889#1" />
    <trip id="80" depart="4.0" from="4" to="-1523#0" />
    <trip id="81" depart="4.05" from="-99#1" to="-1174#3" />
    <trip id="82" depart="4.1" from="260#1" to="1836" />
    <trip id="83" depart="4.15" from="452#1" to="215#2" />
    <trip id="84" depart="4.2" from="-1535" to="931#3" />
    <trip id="85" depart="4.25" from="1132#2" to="929#3" />
    <trip id="86" depart="4.3" from="1564#1" to="1923#1" />
    <trip id="87" depart="4.35" from="1902#3" to="1004#2" />
    <trip id="88" depart="4.4" from="-436#2" to="151#2" />
    <trip id="89" depart="4.45" from="-989#2" to="1879" />
    <trip id="90" depart="4.5" from="864#0" to="1158#0" />
    <trip id="91" depart="4.55" from="1917" to="888#2" />
    <trip id="92" depart="4.6" from="-2004" to="19#0" />
    <trip id="93" depart="4.65" from="384#0" to="-340#1" />
    <trip id="94" depart="4.7" from="-889#0" to="-1661#0" />
    <trip id="95" depart="4.75" from="1971#2" to="1120" />
    <trip id="96" depart="4.8" from="-1003#1" to="952#3" />
    <trip id="97" depart="4.85" from="-422#0" to="-347" />
    <trip id="98" depart="4.9" from="-380#0" to="680#1" />
    <trip id="99" depart="4.95" from="-162#3" to="1071#1" />
    <trip id="100" depart="5.0" from="2020#5" to="-932#5" />
    <trip id="101" depart="5.05" from="-1095#1" to="160#0" />
    <trip id="102" depart="5.1" from="1143" to="765#4" />
    <trip id="103" depart="5.15" from="715#1" to="1933" />
    <trip id="104" depart="5.2" from="510#1" to="2046#2" />
    <trip id="105" depart="5.25" from="1528#1" to="1003#0" />
    <trip id="106" depart="5.3" from="-897#0" to="-946#0" />
    <trip id="107" depart="5.35" from="904#1" to="953" />
    <trip id="108" depart="5.4" from="619#7" to="2001#0" />
    <trip id="109" depart="5.45" from="-1098#1" to="1680" />
    <trip id="110" depart="5.5" from="1965#2" to="-776#0" />
    <trip id="111" depart="5.55" from="1137#3" to="-715#2" />
    <trip id="112" depart="5.6" from="1012" to="27#8" />
    <trip id="113" depart="5.65" from="-678#0" to="-716#0" />
    <trip id="114" depart="5.7" from="972#0" to="884#1" />
    <trip id="115" depart="5.75" from="-553#0" to="-452#1" />
    <trip id="116" depart="5.8" from="1809" to="1174#1" />
    <trip id="117" depart="5.85" from="1000" to="261#1" />
    <trip id="118" depart="5.9" from="218#1" to="-22#3" />
    <trip id="119" depart="5.95" from="859#1" to="1499" />
    <trip id="120" depart="6.0" from="1687" to="1384#1" />
    <trip id="121" depart="6.05" from="-151#0" to="1466#1" />
    <trip id="122" depart="6.1" from="-1527#3" to="1940#2" />
    <trip id="123" depart="6.15" from="904#6" to="914#3" />
    <trip id="124" depart="6.2" from="2015#0" to="-937#0" />
    <trip id="125" depart="6.25" from="383" to="9#5" />
    <trip id="126" depart="6.3" from="1476#0" to="342#0" />
    <trip id="127" depart="6.35" from="1923#1" to="841#2" />
    <trip id="128" depart="6.4" from="62#1" to="1957#0" />
    <trip id="129" depart="6.45" from="-894#0" to="1661#1" />
    <trip id="130" depart="6.5" from="-514#5" to="-167#9" />
    <trip id="131" depart="6.55" from="-765#3" to="1886" />
    <trip id="132" depart="6.6" from="426#3" to="-2046#3" />
    <trip id="133" depart="6.65" from="932#3" to="-514#2" />
    <trip id="134" depart="6.7" from="1540" to="11#2" />
    <trip id="135" depart="6.75" from="-1506#1" to="2043" />
    <trip id="136" depart="6.8" from="-684#0" to="917" />
    <trip id="137" depart="6.85" from="-1623#2" to="1043#0" />
    <trip id="138" depart="6.9" from="-162#3" to="1110#3" />
    <trip id="139" depart="6.95" from="967#2" to="352" />
    <trip id="140" depart="7.0" from="1828" to="1996#7" />
    <trip id="141" depart="7.05" from="26#0" to="-685#1" />
    <trip id="142" depart="7.1" from="1159#1" to="-433#4" />
    <trip id="143" depart="7.15" from="-139#1" to="410#2" />
    <trip id="144" depart="7.2" from="-927#2" to="1915" />
    <trip id="145" depart="7.25" from="-215#0" to="1132#3" />
    <trip id="146" depart="7.3" from="-1542" to="1046#0" />
    <trip id="147" depart="7.35" from="-1169#1" to="1963#0" />
    <trip id="148" depart="7.4" from="-993#0" to="198" />
    <trip id="149" depart="7.45" from="452#0" to="2046#4" />
    <trip id="150" depart="7.5" from="1526" to="929#3" />
    <trip id="151" depart="7.55" from="2041#1" to="-426#1" />
    <trip id="152" depart="7.6" from="1011#0" to="-9#3" />
    <trip id="153" depart="7.65" from="1500#1" to="-1936#1" />
    <trip id="154" depart="7.7" from="1466#1" to="927#2" />
    <trip id="155" depart="7.75" from="-111" to="514#8" />
    <trip id="156" depart="7.8" from="1108" to="-195" />
    <trip id="157" depart="7.85" from="1807#2" to="1062#1" />
    <trip id="158" depart="7.9" from="1939#3" to="-708" />
    <trip id="159" depart="7.95" from="-345#0" to="236" />
    <trip id="160" depart="8.0" from="-932#3" to="167#19" />
    <trip id="161" depart="8.05" from="-710#1" to="2001#3" />
    <trip id="162" depart="8.1" from="1942" to="-1506#0" />
    <trip id="163" depart="8.15" from="1145" to="2025" />
    <trip id="164" depart="8.2" from="-1530#3" to="989#6" />
    <trip id="165" depart="8.25" from="-680#1" to="-126#0" />
    <trip id="166" depart="8.3" from="-1556#1" to="2012#1" />
    <trip id="167" depart="8.35" from="-1916#0" to="-904#7" />
    <trip id="168" depart="8.4" from="2040#3" to="1945#2" />
    <trip id="169" depart="8.45" from="167#17" to="929#2" />
    <trip id="170" depart="8.5" from="1831#2" to="2031#1" />
    <trip id="171" depart="8.55" from="1907" to="350" />
    <trip id="172" depart="8.6" from="119#0" to="-101#4" />
    <trip id="173" depart="8.65" from="227#1" to="-177#0" />
    <trip id="174" depart="8.7" from="-1100" to="-639#1" />
    <trip id="175" depart="8.75" from="1064" to="1007#3" />
    <trip id="176" depart="8.8" from="1528#0" to="193#6" />
    <trip id="177" depart="8.85" from="-914#0" to="-1041#3" />
    <trip id="178" depart="8.9" from="-257" to="1556#0" />
    <trip id="179" depart="8.95" from="1473#0" to="1998#0" />
    <trip id="180" depart="9.0" from="883" to="193#6" />
    <trip id="181" depart="9.05" from="1875#3" to="197#0" />
    <trip id="182" depart="9.1" from="1880" to="1161" />
    <trip id="183" depart="9.15" from="1902#3" to="1105" />
    <trip id="184" depart="9.2" from="1137#5" to="-1110#2" />
    <trip id="185" depart="9.25" from="-937#0" to="1875#2" />
    <trip id="186" depart="9.3" from="164#0" to="-929#1" />
    <trip id="187" depart="9.35" from="960" to="-889#1" />
    <trip id="188" depart="9.4" from="-152#2" to="1997" />
    <trip id="189" depart="9.45" from="-989#4" to="-946#4" />
    <trip id="190" depart="9.5" from="1476#0" to="-932#0" />
    <trip id="191" depart="9.55" from="-509#1" to="162#0" />
    <trip id="192" depart="9.6" from="1067" to="1126#0" />
    <trip id="193" depart="9.65" from="937#0" to="-113#1" />
    <trip id="194" depart="9.7" from="-309#3" to="1798#1" />
    <trip id="195" depart="9.75" from="1912" to="-514#10" />
    <trip id="196" depart="9.8" from="1068#0" to="930#3" />
    <trip id="197" depart="9.85" from="1930#0" to="1998#0" />
    <trip id="198" depart="9.9" from="29#0" to="-27#7" />
    <trip id="199" depart="9.95" from="1465" to="-638" />
    <trip id="200" depart="10.0" from="373#0" to="989#2" />
    <trip id="201" depart="10.05" from="716#1" to="-1046#2" />
    <trip id="202" depart="10.1" from="766#1" to="-904#3" />
    <trip id="203" depart="10.15" from="-467#1" to="765#4" />
    <trip id="204" depart="10.2" from="-618#0" to="101#3" />
    <trip id="205" depart="10.25" from="164#2" to="1531" />
    <trip id="206" depart="10.3" from="422#0" to="1138#0" />
    <trip id="207" depart="10.35" from="1057#1" to="1556#1" />
    <trip id="208" depart="10.4" from="117#1" to="1533#0" />
    <trip id="209" depart="10.45" from="-514#2" to="1490" />
    <trip id="210" depart="10.5" from="-1533#0" to="898#1" />
    <trip id="211" depart="10.55" from="-83#4" to="2030#0" />
    <trip id="212" depart="10.6" from="1943#2" to="865#2" />
    <trip id="213" depart="10.65" from="-1900#2" to="1686" />
    <trip id="214" depart="10.7" from="-81#0" to="1894" />
    <trip id="215" depart="10.75" from="-938#0" to="2034" />
    <trip id="216" depart="10.8" from="514#16" to="1484" />
    <trip id="217" depart="10.85" from="1132#2" to="961" />
    <trip id="218" depart="10.9" from="2040#4" to="1919#1" />
    <trip id="219" depart="10.95" from="618#1" to="286#0" />
    <trip id="220" depart="11.0" from="1684#0" to="-501#1" />
    <trip id="221" depart="11.05" from="1902#3" to="2040#4" />
    <trip id="222" depart="11.1" from="215#0" to="716#0" />
    <trip id="223" depart="11.15" from="1110#4" to="-765#4" />
    <trip id="224" depart="11.2" from="971" to="1047" />
    <trip id="225" depart="11.25" from="126#0" to="-618#1" />
    <trip id="226" depart="11.3" from="1978" to="1831#3" />
    <trip id="227" depart="11.35" from="87#0" to="1170#0" />
    <trip id="228" depart="11.4" from="1679" to="684#4" />
    <trip id="229" depart="11.45" from="1156#2" to="-223#5" />
    <trip id="230" depart="11.5" from="-167#1" to="-162#2" />
    <trip id="231" depart="11.55" from="-132#1" to="618#2" />
    <trip id="232" depart="11.6" from="1043#0" to="885#0" />
    <trip id="233" depart="11.65" from="1901#1" to="-685#0" />
    <trip id="234" depart="11.7" from="320#0" to="1953" />
    <trip id="235" depart="11.75" from="27#6" to="1488#0" />
    <trip id="236" depart="11.8" from="-619#7" to="1935" />
    <trip id="237" depart="11.85" from="919#2" to="-674#0" />
    <trip id="238" depart="11.9" from="989#1" to="1536" />
    <trip id="239" depart="11.95" from="341#0" to="1041#1" />
    <trip id="240" depart="12.0" from="152#0" to="2002" />
    <trip id="241" depart="12.05" from="-113#3" to="1528#2" />
    <trip id="242" depart="12.1" from="1530#0" to="-83#6" />
    <trip id="243" depart="12.15" from="429#0" to="-993#3" />
    <trip id="244" depart="12.2" from="-1720#0" to="-1523#1" />
    <trip id="245" depart="12.25" from="1019" to="1623#2" />
    <trip id="246" depart="12.3" from="171#1" to="932#0" />
    <trip id="247" depart="12.35" from="1072" to="380#1" />
    <trip id="248" depart="12.4" from="197#1" to="1836" />
    <trip id="249" depart="12.45" from="904#10" to="972#4" />
    <trip id="250" depart="12.5" from="1119#1" to="-11#1" />
    <trip id="251" depart="12.55" from="291" to="-676#0" />
    <trip id="252" depart="12.6" from="-814#1" to="553#0" />
    <trip id="253" depart="12.65" from="1880" to="-1541" />
    <trip id="254" depart="12.7" from="1915" to="1505#0" />
    <trip id="255" depart="12.75" from="282#6" to="152#2" />
    <trip id="256" depart="12.8" from="1875#0" to="333#1" />
    <trip id="257" depart="12.85" from="-1385#1" to="1888" />
    <trip id="258" depart="12.9" from="2036#2" to="232#1" />
    <trip id="259" depart="12.95" from="1720#1" to="428" />
    <trip id="260" depart="13.0" from="-167#10" to="952#2" />
    <trip id="261" depart="13.05" from="1140#2" to="12#0" />
    <trip id="262" depart="13.1" from="-1523#0" to="109" />
    <trip id="263" depart="13.15" from="-422#0" to="919#1" />
    <trip id="264" depart="13.2" from="1973#0" to="1475" />
    <trip id="265" depart="13.25" from="-856" to="223#0" />
    <trip id="266" depart="13.3" from="-391" to="619#2" />
    <trip id="267" depart="13.35" from="1679" to="970#0" />
    <trip id="268" depart="13.4" from="193#6" to="-675#0" />
    <trip id="269" depart="13.45" from="-22#2" to="904#7" />
    <trip id="270" depart="13.5" from="-19#1" to="1059#1" />
    <trip id="271" depart="13.55" from="163#3" to="1996#0" />
    <trip id="272" depart="13.6" from="1505#0" to="1669" />
    <trip id="273" depart="13.65" from="-1110#4" to="-1125#0" />
    <trip id="274" depart="13.7" from="-716#0" to="-27#2" />
    <trip id="275" depart="13.75" from="-163#3" to="1973#0" />
    <trip id="276" depart="13.8" from="-1088" to="-1552" />
    <trip id="277" depart="13.85" from="1808#1" to="535" />
    <trip id="278" depart="13.9" from="-1165#2" to="2007#2" />
    <trip id="279" depart="13.95" from="2022#0" to="1505#1" />
    <trip id="280" depart="14.0" from="104" to="1867#2" />
    <trip id="281" depart="14.05" from="514#11" to="2014#4" />
    <trip id="282" depart="14.1" from="409" to="435#1" />
    <trip id="283" depart="14.15" from="1070#0" to="1812" />
    <trip id="284" depart="14.2" from="392" to="-989#3" />
    <trip id="285" depart="14.25" from="1067" to="1169#1" />
    <trip id="286" depart="14.3" from="-989#4" to="-1174#0" />
    <trip id="287" depart="14.35" from="332" to="952#5" />
    <trip id="288" depart="14.4" from="1857#0" to="-223#3" />
    <trip id="289" depart="14.45" from="1678" to="27#10" />
    <trip id="290" depart="14.5" from="-924" to="-966#0" />
    <trip id="291" depart="14.55" from="710#2" to="-618#0" />
    <trip id="292" depart="14.6" from="1704" to="-841#6" />
    <trip id="293" depart="14.65" from="1921#3" to="1150#2" />
    <trip id="294" depart="14.7" from="1785#1" to="-139#0" />
    <trip id="295" depart="14.75" from="956#2" to="391" />
    <trip id="296" depart="14.8" from="-523#0" to="-99#0" />
    <trip id="297" depart="14.85" from="-27#18" to="83#3" />
    <trip id="298" depart="14.9" from="-619#4" to="-947#4" />
    <trip id="299" depart="14.95" from="1944#0" to="935#1" />
    <trip id="300" depart="15.0" from="-83#5" to="1807#2" />
    <trip id="301" depart="15.05" from="972#3" to="-90#1" />
    <trip id="302" depart="15.1" from="1998#0" to="1801#3" />
    <trip id="303" depart="15.15" from="841#0" to="167#3" />
    <trip id="304" depart="15.2" from="-885#1" to="-932#1" />
    <trip id="305" depart="15.25" from="1678" to="1140#1" />
    <trip id="306" depart="15.3" from="-916" to="514#0" />
    <trip id="307" depart="15.35" from="-338#1" to="452#1" />
    <trip id="308" depart="15.4" from="-1098#2" to="-639#0" />
    <trip id="309" depart="15.45" from="324#2" to="1894" />
    <trip id="310" depart="15.5" from="-1026#0" to="-1752#1" />
    <trip id="311" depart="15.55" from="960" to="1998#1" />
    <trip id="312" depart="15.6" from="1811#1" to="1919#1" />
    <trip id="313" depart="15.65" from="816" to="619#2" />
    <trip id="314" depart="15.7" from="1141" to="1466#1" />
    <trip id="315" depart="15.75" from="-680#1" to="-152#1" />
    <trip id="316" depart="15.8" from="487#1" to="967#2" />
    <trip id="317" depart="15.85" from="947#1" to="218#1" />
    <trip id="318" depart="15.9" from="-904#6" to="1831#1" />
    <trip id="319" depart="15.95" from="-878#2" to="514#3" />
    <trip id="320" depart="16.0" from="1165#2" to="-1527#0" />
    <trip id="321" depart="16.05" from="-1165#0" to="2012#0" />
    <trip id="322" depart="16.1" from="1677" to="167#6" />
    <trip id="323" depart="16.15" from="262" to="1999#7" />
    <trip id="324" depart="16.2" from="-1900#1" to="-1076#1" />
    <trip id="325" depart="16.25" from="1100" to="997#0" />
    <trip id="326" depart="16.3" from="1996#10" to="930#3" />
    <trip id="327" depart="16.35" from="618#2" to="-618#0" />
    <trip id="328" depart="16.4" from="1801#0" to="-49" />
    <trip id="329" depart="16.45" from="-765#5" to="927#2" />
    <trip id="330" depart="16.5" from="426#2" to="-1109" />
    <trip id="331" depart="16.55" from="2020#6" to="-1174#5" />
    <trip id="332" depart="16.6" from="-1103#0" to="-1186" />
    <trip id="333" depart="16.65" from="-160#0" to="1026#1" />
    <trip id="334" depart="16.7" from="-22#3" to="-106#2" />
    <trip id="335" depart="16.75" from="1917" to="1483#0" />
    <trip id="336" depart="16.8" from="2007#1" to="-1174#2" />
    <trip id="337" depart="16.85" from="776#1" to="2026#0" />
    <trip id="338" depart="16.9" from="324#1" to="-947#1" />
    <trip id="339" depart="16.95" from="487#0" to="1900#3" />
    <trip id="340" depart="17.0" from="1831#1" to="1007#0" />
    <trip id="341" depart="17.05" from="-1553" to="-1558" />
    <trip id="342" depart="17.1" from="1156#2" to="-1556#1" />
    <trip id="343" depart="17.15" from="203#3" to="1872" />
    <trip id="344" depart="17.2" from="-309#0" to="-1529#0" />
    <trip id="345" depart="17.25" from="618#0" to="-1523#1" />
    <trip id="346" depart="17.3" from="90#0" to="282#1" />
    <trip id="347" depart="17.35" from="333#2" to="909#1" />
    <trip id="348" depart="17.4" from="161#1" to="1830#1" />
    <trip id="349" depart="17.45" from="-1541" to="-1026#2" />
    <trip id="350" depart="17.5" from="-886#1" to="295" />
    <trip id="351" depart="17.55" from="1157#2" to="903#0" />
    <trip id="352" depart="17.6" from="957#1" to="12#1" />
    <trip id="353" depart="17.65" from="1059#0" to="1944#0" />
    <trip id="354" depart="17.7" from="-1522#1" to="-2046#3" />
    <trip id="355" depart="17.75" from="1831#3" to="1384#1" />
    <trip id="356" depart="17.8" from="-765#2" to="-625" />
    <trip id="357" depart="17.85" from="-505" to="1842#0" />
    <trip id="358" depart="17.9" from="1473#0" to="914#2" />
    <trip id="359" depart="17.95" from="1714" to="-1900#7" />
    <trip id="360" depart="18.0" from="-83#8" to="1971#1" />
    <trip id="361" depart="18.05" from="1951" to="-22#4" />
    <trip id="362" depart="18.1" from="-1050#1" to="1084" />
    <trip id="363" depart="18.15" from="263" to="95#0" />
    <trip id="364" depart="18.2" from="1939#4" to="1144" />
    <trip id="365" depart="18.25" from="1831#3" to="-164#2" />
    <trip id="366" depart="18.3" from="488" to="-7#2" />
    <trip id="367" depart="18.35" from="1911" to="386#1" />
    <trip id="368" depart="18.4" from="264#0" to="2027#0" />
    <trip id="369" depart="18.45" from="-639#0" to="1476#1" />
    <trip id="370" depart="18.5" from="344#1" to="2041#2" />
    <trip id="371" depart="18.55" from="972#1" to="-509#1" />
    <trip id="372" depart="18.6" from="-1076#1" to="-403" />
    <trip id="373" depart="18.65" from="-949#3" to="-380#1" />
    <trip id="374" depart="18.7" from="2039#0" to="215#3" />
    <trip id="375" depart="18.75" from="1909" to="1949#1" />
    <trip id="376" depart="18.8" from="-1522#3" to="1832#2" />
    <trip id="377" depart="18.85" from="-264#2" to="-710#1" />
    <trip id="378" depart="18.9" from="-904#2" to="345#0" />
    <trip id="379" depart="18.95" from="86" to="-710#0" />
    <trip id="380" depart="19.0" from="-708" to="-535" />
    <trip id="381" depart="19.05" from="514#7" to="1893#0" />
    <trip id="382" depart="19.1" from="-27#16" to="1965#1" />
    <trip id="383" depart="19.15" from="518#3" to="-167#13" />
    <trip id="384" depart="19.2" from="101#1" to="-203#1" />
    <trip id="385" depart="19.25" from="-1174#6" to="1996#10" />
    <trip id="386" depart="19.3" from="766#1" to="1142#1" />
    <trip id="387" depart="19.35" from="1527#3" to="932#5" />
    <trip id="388" depart="19.4" from="2016" to="1068#0" />
    <trip id="389" depart="19.45" from="1473#7" to="1872" />
    <trip id="390" depart="19.5" from="1459#1" to="918#1" />
    <trip id="391" depart="19.55" from="-1850" to="-119#0" />
    <trip id="392" depart="19.6" from="-436#0" to="-27#16" />
    <trip id="393" depart="19.65" from="-433#3" to="-888#0" />
    <trip id="394" depart="19.7" from="1492#3" to="1528#5" />
    <trip id="395" depart="19.75" from="-683#1" to="347" />
    <trip id="396" depart="19.8" from="1158#0" to="132#1" />
    <trip id="397" depart="19.85" from="1556#0" to="946#5" />
    <trip id="398" depart="19.9" from="1499" to="1666" />
    <trip id="399" depart="19.95" from="432#2" to="156#3" />
    <trip id="400" depart="20.0" from="1847" to="132#3" />
    <trip id="401" depart="20.05" from="-1098#1" to="989#9" />
    <trip id="402" depart="20.1" from="912#3" to="904#7" />
    <trip id="403" depart="20.15" from="-43#1" to="776#0" />
    <trip id="404" depart="20.2" from="1474" to="-509#1" />
    <trip id="405" depart="20.25" from="-1003#3" to="-308#1" />
    <trip id="406" depart="20.3" from="1165#1" to="2041#1" />
    <trip id="407" depart="20.35" from="1079#0" to="433#2" />
    <trip id="408" depart="20.4" from="459#2" to="-433#0" />
    <trip id="409" depart="20.45" from="996#2" to="-865#0" />
    <trip id="410" depart="20.5" from="-121" to="955#0" />
    <trip id="411" depart="20.55" from="-167#14" to="1705" />
    <trip id="412" depart="20.6" from="1506#0" to="97#0" />
    <trip id="413" depart="20.65" from="1126#0" to="1030#0" />
    <trip id="414" depart="20.7" from="917" to="1042#2" />
    <trip id="415" depart="20.75" from="-90#3" to="27#18" />
    <trip id="416" depart="20.8" from="1867#2" to="-955#1" />
    <trip id="417" depart="20.85" from="-162#2" to="1661#1" />
    <trip id="418" depart="20.9" from="-616#1" to="-132#2" />
    <trip id="419" depart="20.95" from="952#0" to="-97#0" />
    <trip id="420" depart="21.0" from="-22#0" to="205" />
    <trip id="421" depart="21.05" from="2034" to="1996#1" />
    <trip id="422" depart="21.1" from="1931#0" to="40" />
    <trip id="423" depart="21.15" from="1807#1" to="162#2" />
    <trip id="424" depart="21.2" from="-1936#0" to="919#1" />
    <trip id="425" depart="21.25" from="-518#3" to="-1520" />
    <trip id="426" depart="21.3" from="1056#1" to="-467#2" />
    <trip id="427" depart="21.35" from="1868" to="127" />
    <trip id="428" depart="21.4" from="-340#0" to="101#0" />
    <trip id="429" depart="21.45" from="-218#1" to="-1916#0" />
    <trip id="430" depart="21.5" from="1480" to="203#1" />
    <trip id="431" depart="21.55" from="2040#5" to="1715#2" />
    <trip id="432" depart="21.6" from="-760" to="282#4" />
    <trip id="433" depart="21.65" from="1061#3" to="932#5" />
    <trip id="434" depart="21.7" from="-193#4" to="947#5" />
    <trip id="435" depart="21.75" from="-511" to="776#0" />
    <trip id="436" depart="21.8" from="-715#1" to="1889#1" />
    <trip id="437" depart="21.85" from="-946#3" to="253#0" />
    <trip id="438" depart="21.9" from="1107#0" to="-1916#2" />
    <trip id="439" depart="21.95" from="1920" to="-342#1" />
    <trip id="440" depart="22.0" from="-22#4" to="-1539" />
    <trip id="441" depart="22.05" from="1479#1" to="258#3" />
    <trip id="442" depart="22.1" from="167#17" to="122" />
    <trip id="443" depart="22.15" from="1087" to="-1528#0" />
    <trip id="444" depart="22.2" from="-1900#4" to="1955" />
    <trip id="445" depart="22.25" from="309#6" to="1546#1" />
    <trip id="446" depart="22.3" from="1958" to="904#10" />
    <trip id="447" depart="22.35" from="-1916#1" to="909#1" />
    <trip id="448" depart="22.4" from="-957#1" to="1473#9" />
    <trip id="449" depart="22.45" from="28#0" to="-403" />
    <trip id="450" depart="22.5" from="-113#0" to="1053" />
    <trip id="451" depart="22.55" from="-678#0" to="2012#2" />
    <trip id="452" depart="22.6" from="-1070#0" to="-680#1" />
    <trip id="453" depart="22.65" from="1007#0" to="163#2" />
    <trip id="454" depart="22.7" from="431" to="-1378" />
    <trip id="455" depart="22.75" from="-83#3" to="-680#0" />
    <trip id="456" depart="22.8" from="-511" to="253#1" />
    <trip id="457" depart="22.85" from="1142#1" to="-333#3" />
    <trip id="458" depart="22.9" from="1918#2" to="1941#2" />
    <trip id="459" depart="22.95" from="-106#2" to="-167#1" />
    <trip id="460" depart="23.0" from="1938#0" to="534#5" />
    <trip id="461" depart="23.05" from="27#2" to="-1026#2" />
    <trip id="462" depart="23.1" from="1546#0" to="167#14" />
    <trip id="463" depart="23.15" from="320#4" to="1929#5" />
    <trip id="464" depart="23.2" from="1098#0" to="-1526" />
    <trip id="465" depart="23.25" from="-167#19" to="1042#3" />
    <trip id="466" depart="23.3" from="-259" to="1106" />
    <trip id="467" depart="23.35" from="-814#0" to="167#11" />
    <trip id="468" depart="23.4" from="-162#0" to="1563" />
    <trip id="469" depart="23.45" from="865#1" to="197#0" />
    <trip id="470" depart="23.5" from="2011#0" to="88#3" />
    <trip id="471" depart="23.55" from="710#0" to="459#5" />
    <trip id="472" depart="23.6" from="1546#1" to="1538" />
    <trip id="473" depart="23.65" from="-1900#0" to="2012#2" />
    <trip id="474" depart="23.7" from="680#2" to="1912" />
    <trip id="475" depart="23.75" from="-349" to="-888#0" />
    <trip id="476" depart="23.8" from="1999#4" to="40" />
    <trip id="477" depart="23.85" from="1949#1" to="-1098#1" />
    <trip id="478" depart="23.9" from="-976#0" to="-167#7" />
    <trip id="479" depart="23.95" from="-432#2" to="1965#0" />
    <trip id="480" depart="24.0" from="1061#2" to="1476#1" />
    <trip id="481" depart="24.05" from="-309#5" to="1900#1" />
    <trip id="482" depart="24.1" from="1163" to="815" />
    <trip id="483" depart="24.15" from="895#0" to="684#5" />
    <trip id="484" depart="24.2" from="-938#1" to="-162#1" />
    <trip id="485" depart="24.25" from="301#0" to="1801#3" />