<?xml version="1.0" encoding="UTF-8"?>

<!-- generated on 03/21/16 09:44:36 by SUMO duarouter Version 0.24.0
<?xml version="1.0" encoding="UTF-8"?>

<configuration xmlns:xsi="http://www.w3.org/2001/XMLSchema-instance" xsi:noNamespaceSchemaLocation="http://sumo.dlr.de/xsd/duarouterConfiguration.xsd">

    <input>
        <net-file value="input_net.net.xml"/>
        <trip-files value="trips.trips.xml"/>
    </input>

    <output>
        <output-file value="routes.rou.xml"/>
    </output>

</configuration>
-->

<routes xmlns:xsi="http://www.w3.org/2001/XMLSchema-instance" xsi:noNamespaceSchemaLocation="http://sumo.dlr.de/xsd/routes_file.xsd">
	<vType accel="0.1" decel="0.1" id="CarA" length="3.0" maxSpeed="0.11" color="1,1,1"/>
    <vehicle id="0" depart="0.00" type="CarA">
        <route edges="2/4to1/4 1/4to2/4 2/4to3/4 3/4to4/4 4/4to5/4 5/4to4/4"/>
    </vehicle>
    <vehicle id="1" depart="0.06" type="CarA">
        <route edges="4/5to5/5 5/5to4/5 4/5to4/4 4/4to4/3 4/3to4/2 4/2to3/2"/>
    </vehicle>
    <vehicle id="2" depart="0.12" type="CarA">
        <route edges="0/1to0/2 0/2to0/3 0/3to0/4 0/4to1/4 1/4to1/5 1/5to2/5 2/5to3/5 3/5to2/5"/>
    </vehicle>
    <vehicle id="3" depart="0.19" type="CarA">
        <route edges="3/2to3/3 3/3to3/2 3/2to3/1 3/1to3/0 3/0to2/0"/>
    </vehicle>
    <vehicle id="4" depart="0.25" type="CarA">
        <route edges="2/4to2/3 2/3to2/2 2/2to3/2 3/2to4/2 4/2to4/3"/>
    </vehicle>
    <vehicle id="5" depart="0.31" type="CarA">
        <route edges="3/3to3/2 3/2to2/2 2/2to2/1 2/1to2/0"/>
    </vehicle>
    <vehicle id="6" depart="0.38" type="CarA">
        <route edges="3/2to3/1 3/1to2/1 2/1to1/1 1/1to0/1 0/1to0/2 0/2to0/1"/>
    </vehicle>
    <vehicle id="7" depart="0.44" type="CarA">
        <route edges="1/1to1/0 1/0to1/1 1/1to0/1 0/1to0/2 0/2to0/3 0/3to0/4 0/4to1/4"/>
    </vehicle>
    <vehicle id="8" depart="0.50" type="CarA">
        <route edges="1/3to2/3 2/3to1/3 1/3to0/3"/>
    </vehicle>
    <vehicle id="9" depart="0.56" type="CarA">
        <route edges="3/4to2/4 2/4to1/4 1/4to0/4 0/4to0/3 0/3to0/2"/>
    </vehicle>
    <vehicle id="10" depart="0.62" type="CarA">
        <route edges="4/0to3/0 3/0to2/0 2/0to1/0 1/0to1/1 1/1to1/2 1/2to1/3 1/3to1/4 1/4to0/4"/>
    </vehicle>
    <vehicle id="11" depart="0.69" type="CarA">
        <route edges="3/4to3/3 3/3to2/3 2/3to1/3 1/3to0/3 0/3to0/4 0/4to0/5"/>
    </vehicle>
    <vehicle id="12" depart="0.75" type="CarA">
        <route edges="4/5to3/5 3/5to2/5 2/5to2/4"/>
    </vehicle>
    <vehicle id="13" depart="0.81" type="CarA">
        <route edges="1/1to1/0 1/0to1/1 1/1to0/1"/>
    </vehicle>
    <vehicle id="14" depart="0.88" type="CarA">
        <route edges="5/3to4/3 4/3to3/3 3/3to2/3 2/3to2/2 2/2to2/1 2/1to2/2"/>
    </vehicle>
    <vehicle id="15" depart="0.94">
        <route edges="1/1to1/2 1/2to1/1 1/1to2/1 2/1to3/1 3/1to4/1 4/1to3/1"/>
    </vehicle>
    <vehicle id="16" depart="1.00">
        <route edges="1/4to1/5 1/5to1/4 1/4to0/4 0/4to0/3 0/3to0/2"/>
    </vehicle>
    <vehicle id="17" depart="1.06">
        <route edges="3/0to4/0 4/0to3/0 3/0to3/1 3/1to3/2 3/2to3/3 3/3to3/4"/>
    </vehicle>
    <vehicle id="18" depart="1.12">
        <route edges="3/1to2/1 2/1to2/2"/>
    </vehicle>
    <vehicle id="19" depart="1.19">
        <route edges="4/4to4/3 4/3to3/3 3/3to3/4 3/4to4/4"/>
    </vehicle>
    <vehicle id="20" depart="1.25">
        <route edges="4/3to5/3 5/3to4/3 4/3to3/3 3/3to3/4 3/4to4/4"/>
    </vehicle>
    <vehicle id="21" depart="1.31">
        <route edges="1/2to2/2 2/2to2/1 2/1to2/0 2/0to3/0 3/0to2/0"/>
    </vehicle>
    <vehicle id="22" depart="1.38">
        <route edges="3/4to2/4 2/4to2/5 2/5to1/5"/>
    </vehicle>
    <vehicle id="23" depart="1.44">
        <route edges="2/1to2/0 2/0to2/1 2/1to2/2 2/2to2/3 2/3to2/4 2/4to3/4 3/4to4/4 4/4to5/4 5/4to4/4"/>
    </vehicle>
    <vehicle id="24" depart="1.50">
        <route edges="0/3to1/3 1/3to1/2 1/2to1/1 1/1to1/2"/>
    </vehicle>
    <vehicle id="25" depart="1.56">
        <route edges="1/3to1/4 1/4to1/3 1/3to1/2 1/2to1/1 1/1to2/1"/>
    </vehicle>
    <vehicle id="26" depart="1.62">
        <route edges="3/3to3/2 3/2to2/2 2/2to1/2 1/2to1/1 1/1to1/0 1/0to1/1"/>
    </vehicle>
    <vehicle id="27" depart="1.69">
        <route edges="3/0to2/0 2/0to2/1 2/1to2/2 2/2to2/3 2/3to3/3 3/3to2/3"/>
    </vehicle>
    <vehicle id="28" depart="1.75">
        <route edges="3/2to4/2 4/2to3/2 3/2to3/1"/>
    </vehicle>
    <vehicle id="29" depart="1.81">
        <route edges="3/1to3/0 3/0to2/0 2/0to1/0 1/0to1/1 1/1to0/1 0/1to0/0"/>
    </vehicle>
    <vehicle id="30" depart="1.88">
        <route edges="2/3to1/3 1/3to0/3 0/3to0/2 0/2to0/3"/>
    </vehicle>
    <vehicle id="31" depart="1.94">
        <route edges="3/3to2/3 2/3to2/2 2/2to2/1 2/1to1/1"/>
    </vehicle>
    <vehicle id="32" depart="2.00">
        <route edges="4/2to5/2 5/2to4/2 4/2to3/2 3/2to2/2 2/2to2/3 2/3to2/4"/>
    </vehicle>
    <vehicle id="33" depart="2.06">
        <route edges="2/2to1/2 1/2to2/2 2/2to3/2 3/2to3/3"/>
    </vehicle>
    <vehicle id="34" depart="2.12">
        <route edges="2/3to2/4 2/4to1/4 1/4to1/3 1/3to1/2 1/2to1/1 1/1to1/0 1/0to1/1"/>
    </vehicle>
    <vehicle id="35" depart="2.19">
        <route edges="3/0to3/1 3/1to2/1 2/1to2/2 2/2to3/2"/>
    </vehicle>
    <vehicle id="36" depart="2.25">
        <route edges="2/1to2/2 2/2to2/3 2/3to2/4 2/4to3/4 3/4to4/4 4/4to5/4 5/4to4/4"/>
    </vehicle>
    <vehicle id="37" depart="2.31">
        <route edges="0/2to0/1 0/1to0/2 0/2to0/3 0/3to1/3 1/3to2/3 2/3to3/3 3/3to4/3 4/3to5/3 5/3to5/4"/>
    </vehicle>
    <vehicle id="38" depart="2.38">
        <route edges="3/1to3/2 3/2to3/3 3/3to3/4 3/4to3/5 3/5to3/4"/>
    </vehicle>
    <vehicle id="39" depart="2.44">
        <route edges="4/2to4/1 4/1to4/0 4/0to3/0"/>
    </vehicle>
    <vehicle id="40" depart="2.50">
        <route edges="4/4to4/3 4/3to4/4 4/4to4/5 4/5to5/5 5/5to5/4"/>
    </vehicle>
    <vehicle id="41" depart="2.56">
        <route edges="4/3to4/4 4/4to3/4 3/4to2/4 2/4to1/4 1/4to0/4 0/4to0/3 0/3to0/2 0/2to0/1 0/1to0/0 0/0to1/0"/>
    </vehicle>
    <vehicle id="42" depart="2.62">
        <route edges="4/2to5/2 5/2to5/1 5/1to5/0 5/0to5/1"/>
    </vehicle>
    <vehicle id="43" depart="2.69">
        <route edges="5/3to5/2 5/2to4/2 4/2to3/2 3/2to3/3 3/3to3/4 3/4to3/5"/>
    </vehicle>
    <vehicle id="44" depart="2.75">
        <route edges="2/1to1/1 1/1to0/1 0/1to0/2"/>
    </vehicle>
    <vehicle id="45" depart="2.81">
        <route edges="4/2to4/1 4/1to4/2 4/2to5/2"/>
    </vehicle>
    <vehicle id="46" depart="2.88">
        <route edges="2/4to3/4 3/4to3/3 3/3to3/2 3/2to3/1 3/1to3/0 3/0to4/0 4/0to5/0 5/0to4/0"/>
    </vehicle>
    <vehicle id="47" depart="2.94">
        <route edges="3/5to4/5 4/5to4/4 4/4to4/3 4/3to4/2 4/2to4/1 4/1to4/0 4/0to5/0 5/0to4/0"/>
    </vehicle>
    <vehicle id="48" depart="3.00">
        <route edges="3/1to3/2 3/2to2/2 2/2to1/2 1/2to0/2 0/2to0/1 0/1to0/0 0/0to1/0"/>
    </vehicle>
    <vehicle id="49" depart="3.06">
        <route edges="1/2to1/1 1/1to1/2 1/2to1/3 1/3to2/3 2/3to3/3 3/3to4/3 4/3to5/3 5/3to5/2"/>
    </vehicle>
    <vehicle id="50" depart="3.12">
        <route edges="2/4to1/4 1/4to2/4 2/4to3/4 3/4to4/4 4/4to4/5"/>
    </vehicle>
    <vehicle id="51" depart="3.19">
        <route edges="0/5to1/5 1/5to1/4 1/4to2/4 2/4to3/4 3/4to4/4 4/4to5/4"/>
    </vehicle>
    <vehicle id="52" depart="3.25">
        <route edges="2/2to1/2 1/2to1/1 1/1to1/0 1/0to0/0"/>
    </vehicle>
    <vehicle id="53" depart="3.31">
        <route edges="4/2to5/2 5/2to4/2 4/2to3/2 3/2to3/3 3/3to4/3"/>
    </vehicle>
    <vehicle id="54" depart="3.38">
        <route edges="4/5to5/5 5/5to4/5 4/5to3/5 3/5to2/5 2/5to1/5 1/5to1/4 1/4to0/4"/>
    </vehicle>
    <vehicle id="55" depart="3.44">
        <route edges="3/1to3/0 3/0to2/0 2/0to2/1 2/1to2/2 2/2to2/3 2/3to2/2"/>
    </vehicle>
    <vehicle id="56" depart="3.50">
        <route edges="1/4to1/3 1/3to1/2 1/2to1/1 1/1to1/0 1/0to2/0 2/0to3/0"/>
    </vehicle>
    <vehicle id="57" depart="3.56">
        <route edges="1/4to2/4 2/4to1/4 1/4to0/4 0/4to0/3 0/3to0/2 0/2to0/1 0/1to1/1"/>
    </vehicle>
    <vehicle id="58" depart="3.62">
        <route edges="4/2to3/2 3/2to3/3 3/3to3/4 3/4to4/4 4/4to3/4"/>
    </vehicle>
    <vehicle id="59" depart="3.69">
        <route edges="0/5to0/4 0/4to0/3 0/3to0/2 0/2to0/1 0/1to1/1 1/1to1/0 1/0to2/0 2/0to2/1"/>
    </vehicle>
    <vehicle id="60" depart="3.75">
        <route edges="2/1to2/2 2/2to2/3 2/3to3/3 3/3to4/3 4/3to4/2"/>
    </vehicle>
    <vehicle id="61" depart="3.81">
        <route edges="1/0to2/0 2/0to2/1 2/1to2/2 2/2to2/1"/>
    </vehicle>
    <vehicle id="62" depart="3.88">
        <route edges="4/1to4/0 4/0to3/0 3/0to2/0 2/0to1/0 1/0to1/1 1/1to0/1 0/1to0/2"/>
    </vehicle>
    <vehicle id="63" depart="3.94">
        <route edges="0/2to1/2 1/2to1/3 1/3to1/4 1/4to1/5 1/5to2/5 2/5to3/5 3/5to4/5 4/5to5/5 5/5to5/4"/>
    </vehicle>
    <vehicle id="64" depart="4.00">
        <route edges="4/5to4/4 4/4to5/4 5/4to5/5"/>
    </vehicle>
    <vehicle id="65" depart="4.06">
        <route edges="3/0to2/0 2/0to2/1 2/1to2/2 2/2to3/2 3/2to4/2 4/2to5/2 5/2to4/2"/>
    </vehicle>
    <vehicle id="66" depart="4.12">
        <route edges="1/3to2/3 2/3to2/2 2/2to2/1 2/1to3/1 3/1to4/1 4/1to5/1 5/1to5/0"/>
    </vehicle>
    <vehicle id="67" depart="4.19">
        <route edges="2/4to2/5 2/5to2/4 2/4to2/3 2/3to2/2 2/2to3/2"/>
    </vehicle>
    <vehicle id="68" depart="4.25">
        <route edges="2/5to1/5 1/5to1/4 1/4to1/3"/>
    </vehicle>
    <vehicle id="69" depart="4.31">
        <route edges="4/0to4/1"/>
    </vehicle>
    <vehicle id="70" depart="4.38">
        <route edges="2/2to3/2 3/2to2/2 2/2to2/1 2/1to2/0 2/0to3/0"/>
    </vehicle>
    <vehicle id="71" depart="4.44">
        <route edges="2/5to2/4 2/4to1/4"/>
    </vehicle>
    <vehicle id="72" depart="4.50">
        <route edges="4/4to3/4 3/4to3/5 3/5to4/5 4/5to5/5 5/5to4/5"/>
    </vehicle>
    <vehicle id="73" depart="4.56">
        <route edges="3/4to3/3 3/3to2/3 2/3to2/2 2/2to2/1 2/1to2/2"/>
    </vehicle>
    <vehicle id="74" depart="4.62">
        <route edges="1/0to2/0 2/0to3/0 3/0to4/0 4/0to5/0"/>
    </vehicle>
    <vehicle id="75" depart="4.69">
        <route edges="2/3to3/3 3/3to2/3 2/3to1/3 1/3to1/2 1/2to1/1 1/1to2/1"/>
    </vehicle>
    <vehicle id="76" depart="4.75">
        <route edges="2/0to2/1 2/1to1/1 1/1to0/1 0/1to0/2 0/2to0/3 0/3to0/4 0/4to1/4"/>
    </vehicle>
    <vehicle id="77" depart="4.81">
        <route edges="1/2to1/1 1/1to1/2 1/2to1/3 1/3to1/4 1/4to2/4 2/4to1/4"/>
    </vehicle>
    <vehicle id="78" depart="4.88">
        <route edges="5/5to5/4 5/4to4/4 4/4to4/3 4/3to5/3"/>
    </vehicle>
    <vehicle id="79" depart="4.94">
        <route edges="0/0to0/1 0/1to0/2 0/2to1/2 1/2to2/2 2/2to3/2"/>
    </vehicle>
    <vehicle id="80" depart="5.00">
        <route edges="5/0to4/0 4/0to4/1 4/1to4/2 4/2to3/2"/>
    </vehicle>
    <vehicle id="81" depart="5.06">
        <route edges="5/4to4/4 4/4to4/5"/>
    </vehicle>
    <vehicle id="82" depart="5.12">
        <route edges="3/3to3/2 3/2to3/1 3/1to3/0 3/0to4/0 4/0to5/0 5/0to4/0"/>
    </vehicle>
    <vehicle id="83" depart="5.19">
        <route edges="2/1to3/1 3/1to2/1 2/1to2/2 2/2to2/3 2/3to1/3"/>
    </vehicle>
    <vehicle id="84" depart="5.25">
        <route edges="1/4to2/4 2/4to2/3 2/3to2/2 2/2to3/2 3/2to4/2 4/2to5/2 5/2to5/3"/>
    </vehicle>
    <vehicle id="85" depart="5.31">
        <route edges="1/4to1/5 1/5to1/4 1/4to1/3 1/3to1/2 1/2to1/1 1/1to1/0"/>
    </vehicle>
    <vehicle id="86" depart="5.38">
        <route edges="5/3to5/2 5/2to4/2 4/2to4/3 4/3to4/4 4/4to4/3"/>
    </vehicle>
    <vehicle id="87" depart="5.44">
        <route edges="4/2to4/1 4/1to4/0 4/0to5/0 5/0to4/0"/>
    </vehicle>
    <vehicle id="88" depart="5.50">
        <route edges="0/3to0/2 0/2to1/2 1/2to2/2 2/2to3/2 3/2to4/2 4/2to4/3"/>
    </vehicle>
    <vehicle id="89" depart="5.56">
        <route edges="1/1to2/1 2/1to2/2 2/2to2/3 2/3to2/4 2/4to2/5 2/5to3/5 3/5to2/5"/>
    </vehicle>
    <vehicle id="90" depart="5.62">
        <route edges="5/4to5/5 5/5to4/5 4/5to3/5 3/5to2/5 2/5to1/5 1/5to1/4 1/4to1/3 1/3to1/2 1/2to0/2"/>
    </vehicle>
    <vehicle id="91" depart="5.69">
        <route edges="2/0to2/1 2/1to1/1 1/1to0/1 0/1to0/0 0/0to0/1"/>
    </vehicle>
    <vehicle id="92" depart="5.75">
        <route edges="0/2to0/1 0/1to0/2 0/2to0/3 0/3to1/3 1/3to2/3 2/3to3/3 3/3to4/3 4/3to4/4"/>
    </vehicle>
    <vehicle id="93" depart="5.81">
        <route edges="1/4to1/5 1/5to1/4 1/4to1/3 1/3to0/3"/>
    </vehicle>
    <vehicle id="94" depart="5.88">
        <route edges="5/2to5/3 5/3to4/3 4/3to3/3 3/3to2/3 2/3to2/4 2/4to2/5 2/5to3/5"/>
    </vehicle>
    <vehicle id="95" depart="5.94">
        <route edges="1/1to1/2 1/2to1/3 1/3to2/3 2/3to3/3 3/3to4/3"/>
    </vehicle>
    <vehicle id="96" depart="6.00">
        <route edges="5/4to5/5 5/5to4/5 4/5to3/5 3/5to3/4 3/4to3/3 3/3to3/2 3/2to3/3"/>
    </vehicle>
    <vehicle id="97" depart="6.06">
        <route edges="4/3to3/3 3/3to3/2 3/2to3/1 3/1to3/0 3/0to4/0 4/0to5/0 5/0to5/1"/>
    </vehicle>
    <vehicle id="98" depart="6.12">
        <route edges="2/0to1/0 1/0to1/1 1/1to2/1 2/1to3/1"/>
    </vehicle>
    <vehicle id="99" depart="6.19">
        <route edges="1/4to2/4 2/4to2/5 2/5to3/5 3/5to4/5 4/5to5/5 5/5to4/5"/>
    </vehicle>
    <vehicle id="100" depart="6.25">
        <route edges="0/4to0/3 0/3to0/2 0/2to1/2"/>
    </vehicle>
    <vehicle id="101" depart="6.31">
        <route edges="3/5to4/5 4/5to4/4 4/4to4/3 4/3to5/3 5/3to4/3"/>
    </vehicle>
    <vehicle id="102" depart="6.38">
        <route edges="3/4to3/5 3/5to3/4 3/4to3/3 3/3to3/2 3/2to3/1 3/1to4/1 4/1to5/1 5/1to5/2"/>
    </vehicle>
    <vehicle id="103" depart="6.44">
        <route edges="3/5to4/5 4/5to3/5 3/5to3/4"/>
    </vehicle>
    <vehicle id="104" depart="6.50">
        <route edges="3/0to3/1 3/1to3/2 3/2to3/3 3/3to3/4 3/4to3/5 3/5to4/5 4/5to3/5"/>
    </vehicle>
    <vehicle id="105" depart="6.56">
        <route edges="3/4to2/4 2/4to1/4 1/4to1/3 1/3to1/2 1/2to1/1"/>
    </vehicle>
    <vehicle id="106" depart="6.62">
        <route edges="3/1to2/1 2/1to3/1 3/1to3/2"/>
    </vehicle>
    <vehicle id="107" depart="6.69">
        <route edges="3/2to4/2 4/2to4/1 4/1to5/1 5/1to5/2"/>
    </vehicle>
    <vehicle id="108" depart="6.75">
        <route edges="2/3to2/2 2/2to2/3 2/3to2/4 2/4to2/5 2/5to3/5 3/5to4/5 4/5to4/4"/>
    </vehicle>
    <vehicle id="109" depart="6.81">
        <route edges="5/3to5/2 5/2to4/2 4/2to3/2 3/2to3/1 3/1to3/0"/>
    </vehicle>
    <vehicle id="110" depart="6.88">
        <route edges="1/2to1/3 1/3to0/3 0/3to0/2 0/2to0/1 0/1to0/2"/>
    </vehicle>
    <vehicle id="111" depart="6.94">
        <route edges="3/5to4/5 4/5to3/5 3/5to3/4 3/4to3/5"/>
    </vehicle>
    <vehicle id="112" depart="7.00">
        <route edges="4/1to5/1 5/1to4/1 4/1to3/1 3/1to2/1 2/1to1/1 1/1to0/1 0/1to0/2 0/2to0/3 0/3to0/4 0/4to1/4"/>
    </vehicle>
    <vehicle id="113" depart="7.06">
        <route edges="4/1to3/1 3/1to2/1 2/1to2/2 2/2to2/3 2/3to2/4 2/4to2/5 2/5to1/5"/>
    </vehicle>
    <vehicle id="114" depart="7.12">
        <route edges="3/3to3/2 3/2to2/2 2/2to2/3 2/3to2/4 2/4to2/5 2/5to2/4"/>
    </vehicle>
    <vehicle id="115" depart="7.19">
        <route edges="3/5to3/4 3/4to2/4 2/4to2/5 2/5to2/4"/>
    </vehicle>
    <vehicle id="116" depart="7.25">
        <route edges="3/3to2/3 2/3to2/4 2/4to1/4"/>
    </vehicle>
    <vehicle id="117" depart="7.31">
        <route edges="0/4to0/3 0/3to0/2 0/2to0/1 0/1to1/1 1/1to2/1 2/1to3/1 3/1to4/1 4/1to5/1 5/1to4/1"/>
    </vehicle>
    <vehicle id="118" depart="7.38">
        <route edges="2/3to3/3 3/3to2/3"/>
    </vehicle>
    <vehicle id="119" depart="7.44">
        <route edges="3/1to3/2 3/2to2/2 2/2to1/2 1/2to1/1 1/1to1/0 1/0to2/0"/>
    </vehicle>
    <vehicle id="120" depart="7.50">
        <route edges="0/4to0/5 0/5to1/5 1/5to2/5 2/5to1/5"/>
    </vehicle>
    <vehicle id="121" depart="7.56">
        <route edges="3/3to2/3 2/3to2/2 2/2to2/1 2/1to3/1 3/1to4/1 4/1to5/1 5/1to5/2"/>
    </vehicle>
    <vehicle id="122" depart="7.62">
        <route edges="3/4to3/3 3/3to3/2 3/2to3/1 3/1to4/1 4/1to4/2"/>
    </vehicle>
    <vehicle id="123" depart="7.69">
        <route edges="5/1to4/1 4/1to3/1 3/1to2/1 2/1to1/1 1/1to1/2 1/2to1/3 1/3to1/4 1/4to1/5"/>
    </vehicle>
    <vehicle id="124" depart="7.75">
        <route edges="3/2to4/2 4/2to3/2 3/2to2/2 2/2to2/3 2/3to3/3"/>
    </vehicle>
    <vehicle id="125" depart="7.81">
        <route edges="4/1to3/1 3/1to3/0 3/0to4/0 4/0to5/0 5/0to5/1"/>
    </vehicle>
    <vehicle id="126" depart="7.88">
        <route edges="1/2to1/1 1/1to1/2 1/2to1/3 1/3to1/4 1/4to1/5 1/5to2/5 2/5to3/5 3/5to4/5 4/5to4/4"/>
    </vehicle>
    <vehicle id="127" depart="7.94">
        <route edges="1/5to2/5 2/5to2/4 2/4to3/4"/>
    </vehicle>
    <vehicle id="128" depart="8.00">
        <route edges="4/4to4/5 4/5to3/5 3/5to2/5 2/5to1/5 1/5to1/4 1/4to0/4 0/4to0/3 0/3to0/2 0/2to1/2"/>
    </vehicle>
    <vehicle id="129" depart="8.06">
        <route edges="4/1to4/0 4/0to3/0 3/0to3/1 3/1to3/2 3/2to3/3 3/3to3/4"/>
    </vehicle>
    <vehicle id="130" depart="8.12">
        <route edges="5/2to5/1 5/1to4/1 4/1to4/2 4/2to4/3 4/3to4/4 4/4to4/5"/>
    </vehicle>
    <vehicle id="131" depart="8.19">
        <route edges="0/4to0/5 0/5to0/4 0/4to0/3 0/3to0/2 0/2to0/1 0/1to0/0 0/0to0/1"/>
    </vehicle>
    <vehicle id="132" depart="8.25">
        <route edges="2/3to2/4 2/4to1/4 1/4to1/3 1/3to1/4"/>
    </vehicle>
    <vehicle id="133" depart="8.31">
        <route edges="0/3to0/2 0/2to0/3 0/3to0/4 0/4to0/5 0/5to1/5"/>
    </vehicle>
    <vehicle id="134" depart="8.38">
        <route edges="4/1to4/2 4/2to3/2 3/2to2/2 2/2to2/1 2/1to3/1"/>
    </vehicle>
    <vehicle id="135" depart="8.44">
        <route edges="2/1to2/0 2/0to1/0 1/0to1/1 1/1to1/2"/>
    </vehicle>
    <vehicle id="136" depart="8.50">
        <route edges="3/0to3/1 3/1to3/2 3/2to4/2 4/2to5/2 5/2to5/3"/>
    </vehicle>
    <vehicle id="137" depart="8.56">
        <route edges="4/4to4/5 4/5to3/5 3/5to3/4 3/4to3/3 3/3to3/2 3/2to3/1 3/1to3/2"/>
    </vehicle>
    <vehicle id="138" depart="8.62">
        <route edges="2/5to2/4 2/4to2/3 2/3to2/2 2/2to2/1 2/1to2/0 2/0to3/0"/>
    </vehicle>
    <vehicle id="139" depart="8.69">
        <route edges="4/2to4/1 4/1to4/2 4/2to4/3 4/3to5/3"/>
    </vehicle>
    <vehicle id="140" depart="8.75">
        <route edges="0/2to0/1 0/1to0/2 0/2to0/3 0/3to0/4 0/4to1/4 1/4to1/5 1/5to2/5 2/5to3/5 3/5to4/5"/>
    </vehicle>
    <vehicle id="141" depart="8.81">
        <route edges="1/4to0/4 0/4to0/3 0/3to0/2 0/2to0/1 0/1to1/1 1/1to1/0 1/0to2/0 2/0to3/0 3/0to3/1"/>
    </vehicle>
    <vehicle id="142" depart="8.88">
        <route edges="5/4to4/4 4/4to3/4 3/4to2/4 2/4to1/4 1/4to1/3 1/3to1/2"/>
    </vehicle>
    <vehicle id="143" depart="8.94">
        <route edges="0/1to0/2 0/2to0/1 0/1to1/1 1/1to2/1 2/1to2/2"/>
    </vehicle>
    <vehicle id="144" depart="9.00">
        <route edges="0/0to0/1 0/1to0/2 0/2to1/2 1/2to2/2 2/2to3/2 3/2to4/2 4/2to5/2 5/2to4/2"/>
    </vehicle>
    <vehicle id="145" depart="9.06">
        <route edges="3/2to2/2 2/2to2/3 2/3to2/4 2/4to2/5 2/5to3/5 3/5to4/5 4/5to3/5"/>
    </vehicle>
    <vehicle id="146" depart="9.12">
        <route edges="3/5to4/5 4/5to4/4 4/4to4/3 4/3to4/2 4/2to4/1 4/1to4/0"/>
    </vehicle>
    <vehicle id="147" depart="9.19">
        <route edges="4/1to3/1 3/1to2/1 2/1to1/1 1/1to2/1"/>
    </vehicle>
    <vehicle id="148" depart="9.25">
        <route edges="5/1to4/1 4/1to3/1 3/1to2/1 2/1to1/1 1/1to1/2 1/2to1/3 1/3to1/2"/>
    </vehicle>
    <vehicle id="149" depart="9.31">
        <route edges="1/1to0/1 0/1to1/1 1/1to2/1"/>
    </vehicle>
    <vehicle id="150" depart="9.38">
        <route edges="2/0to1/0 1/0to1/1 1/1to1/2 1/2to1/3 1/3to1/4 1/4to1/5 1/5to2/5 2/5to1/5"/>
    </vehicle>
    <vehicle id="151" depart="9.44">
        <route edges="4/2to4/3 4/3to3/3 3/3to2/3 2/3to1/3 1/3to2/3"/>
    </vehicle>
    <vehicle id="152" depart="9.50">
        <route edges="5/1to4/1 4/1to3/1 3/1to3/2 3/2to3/3 3/3to3/4 3/4to2/4"/>
    </vehicle>
    <vehicle id="153" depart="9.56">
        <route edges="5/5to4/5 4/5to3/5 3/5to2/5 2/5to2/4 2/4to2/3 2/3to2/2 2/2to2/1 2/1to2/0"/>
    </vehicle>
    <vehicle id="154" depart="9.62">
        <route edges="1/3to1/4 1/4to1/3 1/3to1/2 1/2to1/1 1/1to1/0 1/0to2/0 2/0to2/1"/>
    </vehicle>
    <vehicle id="155" depart="9.69">
        <route edges="2/5to1/5 1/5to1/4 1/4to1/3 1/3to1/2 1/2to1/1 1/1to1/0 1/0to2/0 2/0to3/0 3/0to4/0 4/0to4/1"/>
    </vehicle>
    <vehicle id="156" depart="9.75">
        <route edges="5/4to4/4 4/4to4/3 4/3to4/2 4/2to4/1 4/1to4/0 4/0to5/0"/>
    </vehicle>
    <vehicle id="157" depart="9.81">
        <route edges="2/1to3/1 3/1to2/1 2/1to2/2 2/2to2/3"/>
    </vehicle>
    <vehicle id="158" depart="9.88">
        <route edges="1/2to1/3 1/3to1/2 1/2to1/1 1/1to2/1 2/1to2/0"/>
    </vehicle>
    <vehicle id="159" depart="9.94">
        <route edges="2/2to2/3 2/3to1/3 1/3to0/3 0/3to0/2 0/2to1/2"/>
    </vehicle>
    <vehicle id="160" depart="10.00">
        <route edges="1/1to2/1 2/1to3/1"/>
    </vehicle>
    <vehicle id="161" depart="10.06">
        <route edges="3/1to2/1 2/1to1/1 1/1to0/1 0/1to0/2 0/2to0/3 0/3to0/4 0/4to0/3"/>
    </vehicle>
    <vehicle id="162" depart="10.12">
        <route edges="1/5to2/5 2/5to1/5 1/5to1/4 1/4to0/4 0/4to1/4"/>
    </vehicle>
    <vehicle id="163" depart="10.19">
        <route edges="2/3to2/4 2/4to1/4 1/4to0/4 0/4to0/5 0/5to1/5"/>
    </vehicle>
    <vehicle id="164" depart="10.25">
        <route edges="1/3to1/4 1/4to1/3 1/3to1/2 1/2to1/1 1/1to1/0 1/0to2/0 2/0to3/0 3/0to2/0"/>
    </vehicle>
    <vehicle id="165" depart="10.31">
        <route edges="2/0to3/0 3/0to2/0 2/0to1/0 1/0to0/0"/>
    </vehicle>
    <vehicle id="166" depart="10.38">
        <route edges="1/1to1/0 1/0to1/1 1/1to1/2 1/2to1/3 1/3to2/3 2/3to3/3 3/3to4/3 4/3to5/3 5/3to5/4"/>
    </vehicle>
    <vehicle id="167" depart="10.44">
        <route edges="3/1to3/2 3/2to3/3 3/3to3/4 3/4to4/4 4/4to3/4"/>
    </vehicle>
    <vehicle id="168" depart="10.50">
        <route edges="4/1to5/1 5/1to4/1 4/1to3/1 3/1to2/1 2/1to1/1 1/1to1/2 1/2to1/3 1/3to1/4 1/4to1/5 1/5to2/5"/>
    </vehicle>
    <vehicle id="169" depart="10.56">
        <route edges="2/0to1/0 1/0to1/1 1/1to2/1 2/1to2/0"/>
    </vehicle>
    <vehicle id="170" depart="10.62">
        <route edges="0/2to0/1 0/1to0/2 0/2to0/3 0/3to1/3 1/3to2/3 2/3to3/3 3/3to3/4"/>
    </vehicle>
    <vehicle id="171" depart="10.69">
        <route edges="4/1to4/2 4/2to4/1"/>
    </vehicle>
    <vehicle id="172" depart="10.75">
        <route edges="1/1to1/0 1/0to1/1 1/1to2/1 2/1to3/1 3/1to4/1 4/1to5/1 5/1to4/1"/>
    </vehicle>
    <vehicle id="173" depart="10.81">
        <route edges="4/0to5/0 5/0to4/0 4/0to3/0 3/0to2/0 2/0to2/1 2/1to2/2 2/2to2/3 2/3to2/4"/>
    </vehicle>
    <vehicle id="174" depart="10.88">
        <route edges="4/4to3/4 3/4to3/3"/>
    </vehicle>
    <vehicle id="175" depart="10.94">
        <route edges="4/2to5/2 5/2to4/2 4/2to3/2 3/2to3/1"/>
    </vehicle>
    <vehicle id="176" depart="11.00">
        <route edges="4/3to4/2 4/2to3/2 3/2to2/2 2/2to2/3"/>
    </vehicle>
    <vehicle id="177" depart="11.06">
        <route edges="3/1to3/0 3/0to4/0 4/0to4/1"/>
    </vehicle>
    <vehicle id="178" depart="11.12">
        <route edges="3/5to3/4 3/4to4/4 4/4to4/5"/>
    </vehicle>
    <vehicle id="179" depart="11.19">
        <route edges="2/4to3/4 3/4to2/4 2/4to1/4 1/4to0/4 0/4to0/5 0/5to1/5"/>
    </vehicle>
    <vehicle id="180" depart="11.25">
        <route edges="2/5to1/5 1/5to1/4 1/4to1/3 1/3to1/2 1/2to2/2 2/2to3/2 3/2to3/3"/>
    </vehicle>
    <vehicle id="181" depart="11.31">
        <route edges="0/0to1/0 1/0to1/1 1/1to0/1 0/1to1/1"/>
    </vehicle>
    <vehicle id="182" depart="11.38">
        <route edges="5/4to4/4 4/4to3/4 3/4to3/3 3/3to3/4"/>
    </vehicle>
    <vehicle id="183" depart="11.44">
        <route edges="2/1to1/1 1/1to1/2 1/2to2/2 2/2to3/2 3/2to2/2"/>
    </vehicle>
    <vehicle id="184" depart="11.50">
        <route edges="1/0to2/0 2/0to1/0 1/0to0/0 0/0to0/1"/>
    </vehicle>
    <vehicle id="185" depart="11.56">
        <route edges="3/3to3/2 3/2to2/2 2/2to1/2 1/2to0/2 0/2to0/3 0/3to0/4 0/4to0/5 0/5to0/4"/>
    </vehicle>
    <vehicle id="186" depart="11.62">
        <route edges="1/4to2/4 2/4to2/3 2/3to3/3 3/3to4/3 4/3to4/2"/>
    </vehicle>
    <vehicle id="187" depart="11.69">
        <route edges="3/3to3/4 3/4to2/4 2/4to1/4 1/4to1/3 1/3to1/2 1/2to1/1 1/1to1/0 1/0to2/0"/>
    </vehicle>
    <vehicle id="188" depart="11.75">
        <route edges="2/1to1/1 1/1to0/1 0/1to1/1"/>
    </vehicle>
    <vehicle id="189" depart="11.81">
        <route edges="2/4to2/3 2/3to1/3 1/3to1/4 1/4to1/5 1/5to0/5"/>
    </vehicle>
    <vehicle id="190" depart="11.88">
        <route edges="3/1to3/0 3/0to2/0 2/0to1/0 1/0to1/1 1/1to1/2 1/2to1/3 1/3to1/4 1/4to0/4"/>
    </vehicle>
    <vehicle id="191" depart="11.94">
        <route edges="4/2to3/2 3/2to2/2 2/2to1/2 1/2to1/3 1/3to1/4 1/4to1/5"/>
    </vehicle>
    <vehicle id="192" depart="12.00">
        <route edges="1/4to0/4 0/4to0/3 0/3to0/2 0/2to0/1 0/1to1/1 1/1to2/1 2/1to3/1 3/1to4/1"/>
    </vehicle>
    <vehicle id="193" depart="12.06">
        <route edges="2/0to1/0 1/0to1/1 1/1to1/2 1/2to2/2 2/2to3/2 3/2to4/2 4/2to3/2"/>
    </vehicle>
    <vehicle id="194" depart="12.12">
        <route edges="5/4to4/4 4/4to4/3 4/3to4/2"/>
    </vehicle>
    <vehicle id="195" depart="12.19">
        <route edges="2/3to2/2 2/2to3/2 3/2to2/2"/>
    </vehicle>
    <vehicle id="196" depart="12.25">
        <route edges="3/4to3/3 3/3to4/3 4/3to5/3 5/3to5/2"/>
    </vehicle>
    <vehicle id="197" depart="12.31">
        <route edges="1/1to0/1 0/1to0/2 0/2to0/3 0/3to0/4 0/4to1/4 1/4to1/5 1/5to2/5 2/5to2/4"/>
    </vehicle>
    <vehicle id="198" depart="12.38">
        <route edges="2/1to2/2 2/2to2/3 2/3to2/4 2/4to3/4 3/4to2/4"/>
    </vehicle>
    <vehicle id="199" depart="12.44">
        <route edges="3/0to2/0 2/0to1/0 1/0to1/1 1/1to1/2 1/2to1/3 1/3to1/4 1/4to1/5 1/5to2/5"/>
    </vehicle>
    <vehicle id="200" depart="12.50">
        <route edges="1/3to1/4 1/4to1/3 1/3to1/2 1/2to2/2 2/2to3/2 3/2to4/2 4/2to3/2"/>
    </vehicle>
    <vehicle id="201" depart="12.56">
        <route edges="4/0to4/1 4/1to4/2 4/2to5/2"/>
    </vehicle>
    <vehicle id="202" depart="12.62">
        <route edges="4/0to3/0 3/0to3/1 3/1to3/2 3/2to3/3 3/3to3/4 3/4to4/4 4/4to3/4"/>
    </vehicle>
    <vehicle id="203" depart="12.69">
        <route edges="1/3to0/3 0/3to0/4 0/4to1/4 1/4to2/4"/>
    </vehicle>
    <vehicle id="204" depart="12.75">
        <route edges="1/1to2/1 2/1to2/0 2/0to3/0 3/0to2/0"/>
    </vehicle>
    <vehicle id="205" depart="12.81">
        <route edges="2/3to3/3 3/3to2/3 2/3to1/3 1/3to0/3 0/3to0/2"/>
    </vehicle>
    <vehicle id="206" depart="12.88">
        <route edges="3/5to4/5 4/5to4/4 4/4to4/3 4/3to4/2 4/2to4/1 4/1to5/1 5/1to5/0"/>
    </vehicle>
    <vehicle id="207" depart="12.94">
        <route edges="4/3to4/2 4/2to3/2 3/2to3/1 3/1to3/0 3/0to3/1"/>
    </vehicle>
    <vehicle id="208" depart="13.00">
        <route edges="3/1to4/1 4/1to3/1 3/1to3/2 3/2to3/3 3/3to3/4 3/4to3/5 3/5to4/5"/>
    </vehicle>
    <vehicle id="209" depart="13.06">
        <route edges="1/1to1/2 1/2to0/2 0/2to1/2"/>
    </vehicle>
    <vehicle id="210" depart="13.12">
        <route edges="4/2to4/3 4/3to3/3 3/3to2/3 2/3to1/3 1/3to1/2 1/2to2/2"/>
    </vehicle>
    <vehicle id="211" depart="13.19">
        <route edges="1/3to1/2 1/2to0/2 0/2to0/3 0/3to0/4 0/4to1/4"/>
    </vehicle>
    <vehicle id="212" depart="13.25">
        <route edges="4/3to4/2 4/2to3/2 3/2to2/2 2/2to2/1 2/1to1/1"/>
    </vehicle>
    <vehicle id="213" depart="13.31">
        <route edges="1/4to1/3 1/3to1/4 1/4to1/5 1/5to2/5 2/5to3/5"/>
    </vehicle>
    <vehicle id="214" depart="13.38">
        <route edges="5/1to5/2 5/2to4/2 4/2to4/1 4/1to4/0"/>
    </vehicle>
    <vehicle id="215" depart="13.44">
        <route edges="2/5to1/5 1/5to1/4 1/4to0/4 0/4to0/3 0/3to0/2 0/2to0/1 0/1to0/2"/>
    </vehicle>
    <vehicle id="216" depart="13.50">
        <route edges="1/4to1/5 1/5to1/4 1/4to1/3 1/3to1/2 1/2to1/1 1/1to1/0 1/0to0/0"/>
    </vehicle>
    <vehicle id="217" depart="13.56">
        <route edges="2/4to1/4 1/4to0/4 0/4to0/3 0/3to0/2 0/2to0/3"/>
    </vehicle>
    <vehicle id="218" depart="13.62">
        <route edges="5/1to4/1 4/1to4/2 4/2to4/3 4/3to4/4 4/4to5/4 5/4to5/5"/>
    </vehicle>
    <vehicle id="219" depart="13.69">
        <route edges="2/3to2/4 2/4to2/5 2/5to3/5 3/5to4/5 4/5to5/5"/>
    </vehicle>
    <vehicle id="220" depart="13.75">
        <route edges="4/5to3/5 3/5to3/4 3/4to3/5"/>
    </vehicle>
    <vehicle id="221" depart="13.81">
        <route edges="3/4to3/3 3/3to3/4 3/4to4/4 4/4to3/4"/>
    </vehicle>
    <vehicle id="222" depart="13.88">
        <route edges="3/4to3/3 3/3to2/3 2/3to2/4 2/4to1/4"/>
    </vehicle>
    <vehicle id="223" depart="13.94">
        <route edges="0/2to0/3 0/3to1/3 1/3to2/3 2/3to3/3 3/3to4/3 4/3to5/3"/>
    </vehicle>
    <vehicle id="224" depart="14.00">
        <route edges="4/3to4/4 4/4to4/3 4/3to4/2 4/2to5/2 5/2to5/1"/>
    </vehicle>
    <vehicle id="225" depart="14.06">
        <route edges="5/0to4/0 4/0to4/1 4/1to4/2 4/2to4/3 4/3to5/3 5/3to5/2"/>
    </vehicle>
    <vehicle id="226" depart="14.12">
        <route edges="3/3to4/3 4/3to3/3 3/3to2/3 2/3to1/3 1/3to1/2 1/2to1/1 1/1to1/0 1/0to0/0"/>
    </vehicle>
    <vehicle id="227" depart="14.19">
        <route edges="2/4to1/4 1/4to1/3 1/3to1/2 1/2to1/1 1/1to1/0 1/0to2/0 2/0to3/0 3/0to4/0 4/0to5/0 5/0to4/0"/>
    </vehicle>
    <vehicle id="228" depart="14.25">
        <route edges="4/1to4/0 4/0to3/0 3/0to2/0 2/0to1/0 1/0to1/1 1/1to1/2 1/2to1/3 1/3to1/4"/>
    </vehicle>
    <vehicle id="229" depart="14.31">